                                  MODFLOW-NWT-SWR1 
      U.S. GEOLOGICAL SURVEY MODULAR FINITE-DIFFERENCE GROUNDWATER-FLOW MODEL
                            VERSION 1.3.0 07/01/2022
                    BASED ON MODFLOW-2005 VERSION 1.12.00 02/03/2017

 LIST FILE: ./Ag_EP1b/output/Agwater1b_high.lst
                         UNIT    9

 OPENING ./Ag_EP1b/input/Agwater1.ba6
 FILE TYPE:BAS6   UNIT   75   STATUS:OLD    
 FORMAT:FORMATTED              ACCESS:SEQUENTIAL          

 OPENING ./Ag_EP1b/input/Agwater1.upw
 FILE TYPE:UPW   UNIT    7   STATUS:OLD    
 FORMAT:FORMATTED              ACCESS:SEQUENTIAL          

 OPENING ./Ag_EP1b/input/Agwater1.dis
 FILE TYPE:DIS   UNIT    8   STATUS:OLD    
 FORMAT:FORMATTED              ACCESS:SEQUENTIAL          

 OPENING ./Ag_EP1b/input/Agwater1.nwt
 FILE TYPE:NWT   UNIT   13   STATUS:OLD    
 FORMAT:FORMATTED              ACCESS:SEQUENTIAL          

 OPENING ./Ag_EP1b/input/Agwater1.oc
 FILE TYPE:OC   UNIT   14   STATUS:OLD    
 FORMAT:FORMATTED              ACCESS:SEQUENTIAL          

 OPENING ./Ag_EP1b/input/Agwater1.sfr
 FILE TYPE:SFR   UNIT   15   STATUS:OLD    
 FORMAT:FORMATTED              ACCESS:SEQUENTIAL          

 OPENING ./Ag_EP1b/input/Agwater1.ghb
 FILE TYPE:GHB   UNIT   17   STATUS:OLD    
 FORMAT:FORMATTED              ACCESS:SEQUENTIAL          

 OPENING ./Ag_EP1b/input/Agwater1_high.uzf
 FILE TYPE:UZF   UNIT   19   STATUS:OLD    
 FORMAT:FORMATTED              ACCESS:SEQUENTIAL          

 OPENING ./Ag_EP1b/input/Agwater1.gag
 FILE TYPE:GAGE   UNIT   32   STATUS:OLD    
 FORMAT:FORMATTED              ACCESS:SEQUENTIAL          

 OPENING ./Ag_EP1b/input/seg1.tab
 FILE TYPE:DATA   UNIT   55   STATUS:UNKNOWN
 FORMAT:FORMATTED              ACCESS:SEQUENTIAL          

 OPENING ./Ag_EP1b/input/seg9.tab
 FILE TYPE:DATA   UNIT   56   STATUS:UNKNOWN
 FORMAT:FORMATTED              ACCESS:SEQUENTIAL          

 OPENING ./Ag_EP1b/input/Agwater1.ag
 FILE TYPE:AG   UNIT   57   STATUS:OLD    
 FORMAT:FORMATTED              ACCESS:SEQUENTIAL          

 OPENING ./Ag_EP1b/output/Agwater1b_high.hed
 FILE TYPE:DATA   UNIT   62   STATUS:UNKNOWN
 FORMAT:FORMATTED              ACCESS:SEQUENTIAL          

 OPENING ./Ag_EP1b/output/Agwater1GW_high.ts5
 FILE TYPE:DATA   UNIT  105   STATUS:UNKNOWN
 FORMAT:FORMATTED              ACCESS:SEQUENTIAL          

 OPENING ./Ag_EP1b/output/Agwater1GW_high_ET.ts5
 FILE TYPE:DATA   UNIT  106   STATUS:UNKNOWN
 FORMAT:FORMATTED              ACCESS:SEQUENTIAL          

 OPENING ./Ag_EP1b/output/Agwater1GW_high_ET.all
 FILE TYPE:DATA   UNIT  107   STATUS:UNKNOWN
 FORMAT:FORMATTED              ACCESS:SEQUENTIAL          

 OPENING ./Ag_EP1b/output/Agwater1GW_high.all
 FILE TYPE:DATA   UNIT  108   STATUS:UNKNOWN
 FORMAT:FORMATTED              ACCESS:SEQUENTIAL          

 OPENING ./Ag_EP1b/output/Agwater1_high.uzfot
 FILE TYPE:DATA(BINARY)   UNIT   61   STATUS:UNKNOWN
 FORMAT:BINARY                 ACCESS:SEQUENTIAL          

 OPENING ./Ag_EP1b/output/Agwater1cbc_high.unf
 FILE TYPE:DATA(BINARY)   UNIT  102   STATUS:UNKNOWN
 FORMAT:BINARY                 ACCESS:SEQUENTIAL          

 OPENING ./Ag_EP1b/output/Agwater1_high.uzf1
 FILE TYPE:DATA   UNIT   65   STATUS:UNKNOWN
 FORMAT:FORMATTED              ACCESS:SEQUENTIAL          

 OPENING ./Ag_EP1b/output/Agwater1_high.uzf2
 FILE TYPE:DATA   UNIT   66   STATUS:UNKNOWN
 FORMAT:FORMATTED              ACCESS:SEQUENTIAL          

 OPENING ./Ag_EP1b/output/Agwater1_high.uzf3
 FILE TYPE:DATA   UNIT   67   STATUS:UNKNOWN
 FORMAT:FORMATTED              ACCESS:SEQUENTIAL          

 OPENING ./Ag_EP1b/output/Agwater1_high.uzf4
 FILE TYPE:DATA   UNIT   68   STATUS:UNKNOWN
 FORMAT:FORMATTED              ACCESS:SEQUENTIAL          

 OPENING ./Ag_EP1b/output/Agwater1_high.flw
 FILE TYPE:DATA   UNIT   81   STATUS:UNKNOWN
 FORMAT:FORMATTED              ACCESS:SEQUENTIAL          

 OPENING ./Ag_EP1b/output/Agwater1_high.sg1
 FILE TYPE:DATA   UNIT   83   STATUS:UNKNOWN
 FORMAT:FORMATTED              ACCESS:SEQUENTIAL          

 OPENING ./Ag_EP1b/output/Agwater1_high.sg2
 FILE TYPE:DATA   UNIT   84   STATUS:UNKNOWN
 FORMAT:FORMATTED              ACCESS:SEQUENTIAL          

 OPENING ./Ag_EP1b/output/Agwater1_high.sg3
 FILE TYPE:DATA   UNIT   85   STATUS:UNKNOWN
 FORMAT:FORMATTED              ACCESS:SEQUENTIAL          

 OPENING ./Ag_EP1b/output/Agwater1_high.sg4
 FILE TYPE:DATA   UNIT   86   STATUS:UNKNOWN
 FORMAT:FORMATTED              ACCESS:SEQUENTIAL          

 OPENING ./Ag_EP1b/output/Agwater1_high.sg5
 FILE TYPE:DATA   UNIT   87   STATUS:UNKNOWN
 FORMAT:FORMATTED              ACCESS:SEQUENTIAL          

 OPENING ./Ag_EP1b/output/Agwater1_high.sg6
 FILE TYPE:DATA   UNIT   88   STATUS:UNKNOWN
 FORMAT:FORMATTED              ACCESS:SEQUENTIAL          

 OPENING ./Ag_EP1b/output/Agwater1_high.sg7
 FILE TYPE:DATA   UNIT   89   STATUS:UNKNOWN
 FORMAT:FORMATTED              ACCESS:SEQUENTIAL          

 OPENING ./Ag_EP1b/output/Agwater1_high.sg8
 FILE TYPE:DATA   UNIT   90   STATUS:UNKNOWN
 FORMAT:FORMATTED              ACCESS:SEQUENTIAL          

 BAS -- BASIC PACKAGE, VERSION 1.3.0, 7/01/2022 INPUT READ FROM UNIT   75
 
 MODFLOW was compiled using mixed precision
 Precision of REAL variables:           6
 Precision of DOUBLE PRECISION variables:          15

 DISCRETIZATION INPUT DATA READ FROM UNIT    8
 #Test problem 2-- Discretization input
 #Example problem using the UZF1 Package
    1 LAYERS        15 ROWS        10 COLUMNS
   49 STRESS PERIOD(S) IN SIMULATION
 MODEL TIME UNIT IS SECONDS
 MODEL LENGTH UNIT IS FEET
  Confining bed flag for each layer:
   0

                     DELR =   5000.00    

                     DELC =   5000.00    



           TOP ELEVATION OF LAYER 1
 READING ON UNIT    8 WITH FORMAT: (10F7.0)            

            1           2           3           4           5           6           7           8           9          10
 ........................................................................................................................
   1    1105.       1105.       0.000       0.000       0.000       0.000       0.000       0.000       0.000       0.000    
   2    1105.       1095.       1105.       0.000       0.000       1100.       1100.       1110.       0.000       0.000    
   3    0.000       1100.       1085.       1080.       1078.       1076.       1073.       1090.       0.000       0.000    
   4    1110.       1100.       1090.       1085.       1076.       1080.       1080.       1070.       1100.       0.000    
   5    1110.       1100.       1085.       1080.       1078.       1074.       1077.       1066.       1075.       1080.    
   6    1105.       1095.       1080.       1077.       1073.       1069.       1070.       1063.       1085.       1095.    
   7    1105.       1090.       1075.       1072.       1070.       1065.       1065.       1069.       1090.       0.000    
   8    0.000       1080.       1070.       1068.       1063.       1060.       1063.       1067.       1090.       0.000    
   9    0.000       1075.       1065.       1062.       1058.       1052.       1055.       1065.       1090.       0.000    
  10    0.000       1070.       1060.       1055.       1046.       1046.       1044.       1060.       1088.       1100.    
  11    0.000       1055.       1050.       1045.       1041.       1042.       1040.       1050.       1075.       0.000    
  12    1027.       1028.       1028.       1032.       1032.       1033.       1032.       1040.       1060.       0.000    
  13    997.0       1004.       1008.       1014.       1020.       1027.       1032.       1038.       1050.       0.000    
  14    0.000       1030.       1040.       1045.       1050.       1050.       1050.       1050.       1044.       0.000    
  15    0.000       0.000       1080.       1080.       1080.       1080.       0.000       0.000       0.000       0.000    



             MODEL LAYER BOTTOM EL. FOR LAYER   1
 READING ON UNIT    8 WITH FORMAT: (10F7.0)            

            1           2           3           4           5           6           7           8           9          10
 ........................................................................................................................
   1    1000.       1000.       0.000       0.000       0.000       0.000       0.000       0.000       0.000       0.000    
   2    1000.       900.0       900.0       0.000       0.000       950.0       950.0       950.0       0.000       0.000    
   3    0.000       850.0       670.0       680.0       680.0       770.0       770.0       890.0       0.000       0.000    
   4    925.0       850.0       650.0       650.0       650.0       680.0       740.0       850.0       950.0       0.000    
   5    925.0       800.0       650.0       600.0       600.0       600.0       650.0       720.0       850.0       950.0    
   6    925.0       800.0       650.0       600.0       550.0       600.0       650.0       720.0       850.0       970.0    
   7    925.0       800.0       650.0       600.0       550.0       600.0       650.0       720.0       950.0       0.000    
   8    0.000       850.0       700.0       650.0       570.0       600.0       700.0       850.0       950.0       0.000    
   9    0.000       850.0       700.0       650.0       540.0       580.0       700.0       850.0       950.0       0.000    
  10    0.000       850.0       700.0       630.0       530.0       580.0       650.0       800.0       900.0       950.0    
  11    0.000       850.0       700.0       620.0       580.0       620.0       700.0       800.0       900.0       0.000    
  12    900.0       830.0       710.0       640.0       600.0       650.0       700.0       800.0       900.0       0.000    
  13    900.0       810.0       750.0       700.0       650.0       700.0       750.0       800.0       900.0       0.000    
  14    0.000       950.0       850.0       850.0       850.0       850.0       850.0       850.0       850.0       0.000    
  15    0.000       0.000       950.0       950.0       950.0       950.0       0.000       0.000       0.000       0.000    


 STRESS PERIOD     LENGTH       TIME STEPS     MULTIPLIER FOR DELT    SS FLAG
 ----------------------------------------------------------------------------
        1         86400.00          1                    1.000         SS
        2         2630000.         30                    1.000         TR
        3         2630000.         30                    1.000         TR
        4         2630000.         30                    1.000         TR
        5         2630000.         30                    1.000         TR
        6         2630000.         30                    1.000         TR
        7         2630000.         30                    1.000         TR
        8         2630000.         30                    1.000         TR
        9         2630000.         30                    1.000         TR
       10         2630000.         30                    1.000         TR
       11         2630000.         30                    1.000         TR
       12         2630000.         30                    1.000         TR
       13         2630000.         30                    1.000         TR
       14         2630000.         30                    1.000         TR
       15         2630000.         30                    1.000         TR
       16         2630000.         30                    1.000         TR
       17         2630000.         30                    1.000         TR
       18         2630000.         30                    1.000         TR
       19         2630000.         30                    1.000         TR
       20         2630000.         30                    1.000         TR
       21         2630000.         30                    1.000         TR
       22         2630000.         30                    1.000         TR
       23         2630000.         30                    1.000         TR
       24         2630000.         30                    1.000         TR
       25         2630000.         30                    1.000         TR
       26         2630000.         30                    1.000         TR
       27         2630000.         30                    1.000         TR
       28         2630000.         30                    1.000         TR
       29         2630000.         30                    1.000         TR
       30         2630000.         30                    1.000         TR
       31         2630000.         30                    1.000         TR
       32         2630000.         30                    1.000         TR
       33         2630000.         30                    1.000         TR
       34         2630000.         30                    1.000         TR
       35         2630000.         30                    1.000         TR
       36         2630000.         30                    1.000         TR
       37         2630000.         30                    1.000         TR
       38         2630000.         30                    1.000         TR
       39         2630000.         30                    1.000         TR
       40         2630000.         30                    1.000         TR
       41         2630000.         30                    1.000         TR
       42         2630000.         30                    1.000         TR
       43         2630000.         30                    1.000         TR
       44         2630000.         30                    1.000         TR
       45         2630000.         30                    1.000         TR
       46         2630000.         30                    1.000         TR
       47         2630000.         30                    1.000         TR
       48         2630000.         30                    1.000         TR
       49         2630000.         30                    1.000         TR

 COMBINED STEADY-STATE AND TRANSIENT SIMULATION



 
 #Test Simulation 2-- Example problem using the UZF1 Package                     
 #Modified from example Problem 1 of SFR1 documentation report                   
 THE FREE FORMAT OPTION HAS BEEN SELECTED



                     BOUNDARY ARRAY FOR LAYER   1
 READING ON UNIT   75 WITH FORMAT: (20I4)              

                1           2           3           4           5           6           7           8           9          10
 ............................................................................................................................
   1            1           1           0           0           0           0           0           0           0           0
   2            1           1           1           0           0           1           1           1           0           0
   3            0           1           1           1           1           1           1           1           0           0
   4            1           1           1           1           1           1           1           1           1           0
   5            1           1           1           1           1           1           1           1           1           1
   6            1           1           1           1           1           1           1           1           1           1
   7            1           1           1           1           1           1           1           1           1           0
   8            0           1           1           1           1           1           1           1           1           0
   9            0           1           1           1           1           1           1           1           1           0
  10            0           1           1           1           1           1           1           1           1           1
  11            0           1           1           1           1           1           1           1           1           0
  12            1           1           1           1           1           1           1           1           1           0
  13            1           1           1           1           1           1           1           1           1           0
  14            0           1           1           1           1           1           1           1           1           0
  15            0           0           1           1           1           1           0           0           0           0

 AQUIFER HEAD WILL BE SET TO   6999.0     AT ALL NO-FLOW NODES (IBOUND=0).



                       INITIAL HEAD FOR LAYER   1
 READING ON UNIT   75 WITH FORMAT: (10F8.0)            

            1           2           3           4           5           6           7           8           9          10
 ........................................................................................................................
   1    1093.       1089.       6999.       6999.       6999.       6999.       6999.       6999.       6999.       6999.    
   2    1090.       1087.       1081.       6999.       6999.       1072.       1071.       1071.       6999.       6999.    
   3    6999.       1079.       1078.       1074.       1072.       1071.       1069.       1068.       6999.       6999.    
   4    1069.       1071.       1070.       1067.       1065.       1064.       1064.       1066.       1066.       6999.    
   5    1065.       1064.       1063.       1062.       1061.       1061.       1060.       1062.       1066.       1068.    
   6    1060.       1058.       1057.       1056.       1056.       1057.       1057.       1059.       1062.       1066.    
   7    1056.       1053.       1052.       1051.       1051.       1052.       1053.       1055.       1056.       6999.    
   8    6999.       1046.       1046.       1046.       1046.       1046.       1048.       1050.       1050.       6999.    
   9    6999.       1039.       1039.       1039.       1040.       1041.       1042.       1043.       1044.       6999.    
  10    6999.       1031.       1032.       1033.       1034.       1035.       1037.       1038.       1039.       1042.    
  11    6999.       1021.       1023.       1027.       1029.       1030.       1032.       1034.       1036.       6999.    
  12    1001.       1009.       1015.       1020.       1023.       1026.       1029.       1030.       1034.       6999.    
  13    994.5      1000.0       1007.       1013.       1019.       1024.       1029.       1034.       1036.       6999.    
  14    6999.       1004.       1009.       1014.       1019.       1024.       1029.       1035.       1039.       6999.    
  15    6999.       6999.       1012.       1015.       1019.       1022.       6999.       6999.       6999.       6999.    

 OUTPUT CONTROL IS SPECIFIED ONLY AT TIME STEPS FOR WHICH OUTPUT IS DESIRED
 HEADS WILL BE SAVED WITH FORMAT: (10F10.3)           
 SAVED HEADS WILL BE LABELED
 COMPACT CELL-BY-CELL BUDGET FILES WILL BE WRITTEN
 HEAD PRINT FORMAT CODE IS   4    DRAWDOWN PRINT FORMAT CODE IS   0
 HEADS WILL BE SAVED ON UNIT   62    DRAWDOWNS WILL BE SAVED ON UNIT    0
 # NWT Input File
 # Test Problem 3 for MODFLOW-NWT
 #HEADTOL  FLUXTOL MAXITEROUT THICKFACT LINMETH IPRNWT IBOTAV OPTIONS DBDREDUCE DBDINCREASE DBDGAMMA MOMFACT BACKFLAG MAXBACKITER BACKTOL BACKREDUCE

 NWT1 -- Newton Solver, VERSION 1.3.0, 7/01/2022
         INPUT READ FROM UNIT 13

 SPECIFIED OPTION:
 SOLVER INPUT VALUES ARE SPECIFIED BY USER
 ***XMD linear solver will be used***
 
   CONVERGENCE CRITERION OF   0.100000E-03 FOR HEAD SOLUTION
   AND A TOLERANCE OF   0.100000E+03 FOR FLOW SOLUTION AND 
   A MAXIMUM OF   500 OUTER ITERATIONS. 


   D-B-D REDUCTION FACTOR OF    0.970000E+00 AND 
   A D-B-D INCREASE FACTOR OF    0.100000E-04 AND 
   A D-B-D RELAXATION OF    0.000000E+00 AND 
   A MOMENTUM FACTOR OF    0.100000E+00 .


 ***BACKTRACKING IS INACTIVE***
 XMD -- LINEAR SOLUTION BY XMD PACKAGE VERSION 1.30
     BY MOTOMU IBARAKI, OHIO STATE UNIVERSITY, COLOMBUS, OH
                 INPUT READ FROM UNIT 13
 ACCELERATION METHOD                    (IACL) =         1
 NODE ORDERING FLAG                   (NORDER) =         0
 LEVEL OF FILL                         (LEVEL) =         7
 MAXIMUM NUMBER OF ORTHOGONALIZATIONS  (NORTH) =         7
 INDEX FOR USING REDUCED SYSTEM      (IREDSYS) =         1
 RESID. REDUCTION CONVERGE CRITERION  (RRCTOL) =  0.000000E+00
 INDEX FOR USING DROP TOLERANCE     (IDROPTOL) =         1
 DROP TOLERANCE VALUE                  (EPSRN) =  0.500000E-02
 CONVERGENCE CRITERIA OF           (HCLOSEXMD) =  0.100000E-03
 MAX. NUMBER OF LINEAR ITERATIONS  (MXITERXMD) =        50


 UPW1 -- UPSTREAM WEIGHTING FLOW PACKAGE, VERSION 1.3.0, 7/01/2022
         INPUT READ FROM UNIT  7

 #Layer-Property Flow Package input for test simulation 2
 CELL-BY-CELL FLOWS WILL BE SAVED ON UNIT  102
 No named parameters

   LAYER FLAGS:
 LAYER       LAYTYP          LAYAVG    CHANI           LAYVKA           LAYWET
 ---------------------------------------------------------------------------
    1             1             0     1.000E+00             0             0

   INTERPRETATION OF LAYER FLAGS:
                        INTERBLOCK     HORIZONTAL    DATA IN
         LAYER TYPE   TRANSMISSIVITY   ANISOTROPY   ARRAY VKA   WETTABILITY
 LAYER   (LAYTYP)        (LAYAVG)      (CHANI)     (LAYVKA)       (LAYWET)
 ---------------------------------------------------------------------------
    1   CONVERTIBLE      HARMONIC     1.000E+00    VERTICAL K  NON-WETTABLE



              HYD. COND. ALONG ROWS FOR LAYER   1
 READING ON UNIT    7 WITH FORMAT: (10F5.0)            

            1           2           3           4           5           6           7           8           9          10
 ........................................................................................................................
   1   2.0000E-03  2.0000E-03   0.000       0.000       0.000       0.000       0.000       0.000       0.000       0.000    
   2   4.0000E-04  2.0000E-03  2.0000E-03   0.000       0.000      4.0000E-04  4.0000E-04  4.0000E-04   0.000       0.000    
   3    0.000      4.0000E-04  2.0000E-03  2.0000E-03  4.0000E-04  4.0000E-04  4.0000E-04  4.0000E-04   0.000       0.000    
   4   4.0000E-04  4.0000E-04  4.0000E-04  2.0000E-03  2.0000E-03  2.0000E-03  4.0000E-04  4.0000E-04  4.0000E-04   0.000    
   5   4.0000E-04  4.0000E-04  4.0000E-04  2.0000E-03  2.0000E-03  2.0000E-03  2.0000E-03  2.0000E-03  2.0000E-03  2.0000E-03
   6   4.0000E-04  4.0000E-04  4.0000E-04  2.0000E-03  2.0000E-03  2.0000E-03  2.0000E-03  2.0000E-03  4.0000E-04  4.0000E-04
   7   4.0000E-04  4.0000E-04  4.0000E-04  2.0000E-03  2.0000E-03  2.0000E-03  2.0000E-03  2.0000E-03  4.0000E-04   0.000    
   8    0.000      4.0000E-04  4.0000E-04  2.0000E-03  2.0000E-03  2.0000E-03  2.0000E-03  4.0000E-04  4.0000E-04   0.000    
   9    0.000      4.0000E-04  4.0000E-04  2.0000E-03  2.0000E-03  2.0000E-03  2.0000E-03  4.0000E-04  4.0000E-04   0.000    
  10    0.000      4.0000E-04  4.0000E-04  2.0000E-03  2.0000E-03  2.0000E-03  2.0000E-03  4.0000E-04  4.0000E-04  4.0000E-04
  11    0.000      4.0000E-04  4.0000E-04  2.0000E-03  2.0000E-03  2.0000E-03  2.0000E-03  4.0000E-04  4.0000E-04   0.000    
  12   4.0000E-04  4.0000E-04  2.0000E-03  2.0000E-03  2.0000E-03  2.0000E-03  2.0000E-03  4.0000E-04  4.0000E-04   0.000    
  13   2.0000E-03  2.0000E-03  2.0000E-03  2.0000E-03  2.0000E-03  2.0000E-03  2.0000E-03  2.0000E-03  2.0000E-03   0.000    
  14    0.000      4.0000E-04  4.0000E-04  4.0000E-04  4.0000E-04  4.0000E-04  4.0000E-04  4.0000E-04  2.0000E-03   0.000    
  15    0.000       0.000      4.0000E-04  4.0000E-04  4.0000E-04  4.0000E-04   0.000       0.000       0.000       0.000    

      VERTICAL HYD. COND. =  1.000000E-06 FOR LAYER   1

         SPECIFIC STORAGE =  1.000000E-06 FOR LAYER   1



                     SPECIFIC YIELD FOR LAYER   1
 READING ON UNIT    7 WITH FORMAT: (10F5.0)            

            1           2           3           4           5           6           7           8           9          10
 ........................................................................................................................
   1   0.2000      0.2000       0.000       0.000       0.000       0.000       0.000       0.000       0.000       0.000    
   2   0.1000      0.2000      0.2000       0.000       0.000      0.1000      0.1000      0.1000       0.000       0.000    
   3    0.000      0.1000      0.2000      0.2000      0.1000      0.1000      0.1000      0.1000       0.000       0.000    
   4   0.1000      0.1000      0.1000      0.2000      0.2000      0.2000      0.1000      0.1000      0.1000       0.000    
   5   0.1000      0.1000      0.1000      0.2000      0.2000      0.2000      0.2000      0.2000      0.2000      0.2000    
   6   0.1000      0.1000      0.1000      0.2000      0.2000      0.2000      0.2000      0.2000      0.1000      0.1000    
   7   0.1000      0.1000      0.1000      0.2000      0.2000      0.2000      0.2000      0.2000      0.1000       0.000    
   8    0.000      0.1000      0.1000      0.2000      0.2000      0.2000      0.2000      0.1000      0.1000       0.000    
   9    0.000      0.1000      0.1000      0.2000      0.2000      0.2000      0.2000      0.1000      0.1000       0.000    
  10    0.000      0.1000      0.1000      0.2000      0.2000      0.2000      0.2000      0.1000      0.1000      0.1000    
  11    0.000      0.1000      0.1000      0.2000      0.2000      0.2000      0.2000      0.1000      0.1000       0.000    
  12   0.1000      0.1000      0.2000      0.2000      0.2000      0.2000      0.2000      0.1000      0.1000       0.000    
  13   0.2000      0.2000      0.2000      0.2000      0.2000      0.2000      0.2000      0.2000      0.2000       0.000    
  14    0.000      0.1000      0.1000      0.1000      0.1000      0.1000      0.1000      0.1000      0.2000       0.000    
  15    0.000       0.000      0.1000      0.1000      0.1000      0.1000       0.000       0.000       0.000       0.000    

 GHB -- GENERAL-HEAD BOUNDARY PACKAGE, VERSION 7, 5/2/2005
         INPUT READ FROM UNIT   17
 No named parameters
 MAXIMUM OF      2 ACTIVE GHB CELLS AT ONE TIME
 CELL-BY-CELL FLOWS WILL BE PRINTED WHEN ICBCFL NOT 0


     0 GHB parameters

 SFR7 -- STREAMFLOW ROUTING PACKAGE, VERSION 1.3.0, 2022-07-01
         INPUT READ FROM UNIT  15
 #SFR2 Package input for Testing supplimental pumping and irrigation
 No named parameters

 PROCESSING SFR2 OPTIONS
 
          1 Specified inflow files will be read with a maximum of        759 row entries per file
 
Stream loss will be calculated as a factor of the streambed hydraulic conductivity. Multiplication factor is equal to     0.1000000015E+00

 END PROCESSING SFR2 OPTIONS
 


 NUMBER OF STREAM REACHES IS   36

 NUMBER OF STREAM SEGMENTS IS    8

 NUMBER OF STREAM PARAMETERS IS    0

 NUMBER OF STREAM SEGMENTS DEFINED USING PARAMETERS IS              0

 MAXIMUM ERROR FOR STREAM LEAKAGE RATES IS  1.00E-06

 CONSTANT FOR MANNINGS EQUATION IS  1.4860E+00



 STREAM OUTPUT WILL BE WRITTEN TO FILE ON UNIT   81


   STREAM NETWORK DESCRIPTION: 

   LAYER    ROW    COL   SEGMENT   REACH     LENGTH
                          NUMBER   NUMBER    IN CELL        
   --------------------------------------------------
      1      1      1       1        1    4.5000E+03
      1      2      2       1        2    7.0000E+03
      1      3      3       1        3    6.0000E+03
      1      3      4       1        4    5.5500E+03
      1      4      5       2        1    6.5000E+03
      1      5      6       2        2    5.0000E+03
      1      6      6       2        3    5.0000E+03
      1      7      6       2        4    5.0000E+03
      1      8      6       2        5    5.0000E+03
      1      3      5       3        1    5.0000E+03
      1      3      6       3        2    5.0000E+03
      1      3      7       3        3    4.5000E+03
      1      4      8       3        4    6.0000E+03
      1      5      8       3        5    5.0000E+03
      1      6      8       3        6    2.0000E+03
      1      5     10       4        1    2.5000E+03
      1      5      9       4        2    5.0000E+03
      1      6      8       4        3    3.5000E+03
      1      6      8       5        1    4.0000E+03
      1      7      7       5        2    5.0000E+03
      1      8      7       5        3    3.5000E+03
      1      8      6       5        4    2.5000E+03
      1      9      6       6        1    5.0000E+03
      1     10      7       6        2    5.0000E+03
      1     11      7       6        3    5.0000E+03
      1     12      7       6        4    5.0000E+03
      1     13      7       6        5    2.0000E+03
      1     14      9       7        1    5.0000E+03
      1     13      8       7        2    5.5000E+03
      1     13      7       7        3    5.0000E+03
      1     13      6       8        1    5.0000E+03
      1     13      5       8        2    5.0000E+03
      1     13      4       8        3    5.0000E+03
      1     13      3       8        4    5.0000E+03
      1     13      2       8        5    5.0000E+03
      1     13      1       8        6    3.0000E+03




 UZF1 -- UNSATURATED FLOW PACKAGE, VERSION 1.5, 09/10/2019
         INPUT READ FROM UNIT 19
 #UZF Package input for test simulation 2
 No named parameters

 PROCESSING UZF OPTIONS
 
 
 INITIAL WATER CONTENT (THTI) WILL BE 
READ FOR THE FIRST SS OR TR STRESS PERIOD
 
 
 RESIDUAL WATER CONTENT (THTR) WILL BE 
READ AND USED FOR THE FIRST TRANSIENT STRESS 
PERIOD
 
 
AIR ENTRY PRESSURE AND ROOT PRESSURE WILL BE 
SPECIFIED BY USER AND UZ ET WILL BE SIMULATED 
AS PRESSURE-HEAD DEPENDENT
 
 
INFILTRATION WILL BE REJECTED USING 
LAND SURFACE K
 
 
HYDRAULIC CONDUCTIVITY OF LAND SURFACE 
WILL BE READ
 

 END PROCESSING UZF OPTIONS



            AREAL EXTENT OF UZ FLOW
 READING ON UNIT   19 WITH FORMAT: (FREE)              

                1           2           3           4           5           6           7           8           9          10
 ............................................................................................................................
   1            1           1           0           0           0           0           0           0           0           0
   2            1           1           1           0           0           1           1           1           0           0
   3            0           1           1           1           1           1           1           1           0           0
   4            1           1           1           1           1           1           1           1           1           0
   5            1           1           1           1           1           1           1           1           1           1
   6            1           1           1           1           1           1           1           1           1           1
   7            1           1           1           1           1           1           1           1           1           0
   8            0           1           1           1           1           1           1           1           1           0
   9            0           1           1           1           1           1           1           1           1           0
  10            0           1           1           1           1           1           1           1           1           1
  11            0           1           1           1           1           1           1           1           1           0
  12            1           1           1           1           1           1           1           1           1           0
  13            1           1           1           1           1           1           1           1           1           0
  14            0           1           1           1           1           1           1           1           1           0
  15            0           0           1           1           1           1           0           0           0           0
 OPTION 1 -- RECHARGE IN UZF TO TOP LAYER ONLY 



            ROUTING OVERLAND RUNOFF
 READING ON UNIT   19 WITH FORMAT: (FREE)              

                1           2           3           4           5           6           7           8           9          10
 ............................................................................................................................
   1            1           1           0           0           0           0           0           0           0           0
   2            1           1           1           0           0           3           3           3           0           0
   3            0           1           1           1           3           3           3           3           0           0
   4            8           8           2           2           2           2           2           3           3           0
   5            8           8           8           8           2           2           2           3           4           4
   6            8           8           8           8           8           2           2           4           4           4
   7            8           8           8           8           8           2           5           5           5           0
   8            0           8           8           8           8           2           5           5           5           0
   9            0           8           8           8           8           6           6           6           6           0
  10            0           8           8           8           8           6           6           6           6           6
  11            0           8           8           8           8           8           6           6           7           0
  12            8           8           8           8           8           8           6           7           7           0
  13            8           8           8           8           8           8           7           7           7           0
  14            0           8           8           8           8           8           7           7           7           0
  15            0           0           8           8           8           8           0           0           0           0



               SATURATED VERTICAL K
 READING ON UNIT   19 WITH FORMAT: (FREE)              

            1           2           3           4           5           6           7           8           9          10
 ........................................................................................................................
   1   1.0000E-04  1.0000E-04   0.000       0.000       0.000       0.000       0.000       0.000       0.000       0.000    
   2   1.0000E-04  1.0000E-04  1.0000E-04   0.000       0.000      1.0000E-04  1.0000E-04  1.0000E-04   0.000       0.000    
   3    0.000      1.0000E-04  1.0000E-04  1.0000E-04  1.0000E-04  1.0000E-04  1.0000E-04  1.0000E-04   0.000       0.000    
   4   1.0000E-04  1.0000E-04  1.0000E-04  1.0000E-04  1.0000E-04  1.0000E-04  1.0000E-04  1.0000E-04  1.0000E-04   0.000    
   5   1.0000E-04  1.0000E-04  1.0000E-04  1.0000E-04  1.0000E-04  1.0000E-04  1.0000E-04  1.0000E-04  1.0000E-04  1.0000E-04
   6   1.0000E-04  1.0000E-04  1.0000E-04  1.0000E-04  1.0000E-04  1.0000E-04  1.0000E-04  1.0000E-04  1.0000E-04  1.0000E-04
   7   1.0000E-04  1.0000E-04  1.0000E-04  1.0000E-04  1.0000E-04  1.0000E-04  1.0000E-04  1.0000E-04  1.0000E-04   0.000    
   8    0.000      1.0000E-04  1.0000E-04  1.0000E-04  1.0000E-04  1.0000E-04  1.0000E-04  1.0000E-04  1.0000E-04   0.000    
   9    0.000      1.0000E-04  1.0000E-04  1.0000E-04  1.0000E-04  1.0000E-04  1.0000E-04  1.0000E-04  1.0000E-04   0.000    
  10    0.000      1.0000E-04  1.0000E-04  1.0000E-04  1.0000E-04  1.0000E-04  1.0000E-04  1.0000E-04  1.0000E-04  1.0000E-04
  11    0.000      1.0000E-04  1.0000E-04  1.0000E-04  1.0000E-04  1.0000E-04  1.0000E-04  1.0000E-04  1.0000E-04   0.000    
  12   1.0000E-04  1.0000E-04  1.0000E-04  1.0000E-04  1.0000E-04  1.0000E-04  1.0000E-04  1.0000E-04  1.0000E-04   0.000    
  13   1.0000E-04  1.0000E-04  1.0000E-04  1.0000E-04  1.0000E-04  1.0000E-04  1.0000E-04  1.0000E-04  1.0000E-04   0.000    
  14    0.000      1.0000E-04  1.0000E-04  1.0000E-04  1.0000E-04  1.0000E-04  1.0000E-04  1.0000E-04  1.0000E-04   0.000    
  15    0.000       0.000      1.0000E-04  1.0000E-04  1.0000E-04  1.0000E-04   0.000       0.000       0.000       0.000    



            LAND SURFACE VERTICAL K
 READING ON UNIT   19 WITH FORMAT: (FREE)              

            1           2           3           4           5           6           7           8           9          10
 ........................................................................................................................
   1   1.0000E-05  1.0000E-05   0.000       0.000       0.000       0.000       0.000       0.000       0.000       0.000    
   2   1.0000E-05  1.0000E-05  1.0000E-05   0.000       0.000      1.0000E-05  1.0000E-05  1.0000E-05   0.000       0.000    
   3    0.000      1.0000E-05  1.0000E-05  1.0000E-05  1.0000E-05  1.0000E-05  1.0000E-05  1.0000E-05   0.000       0.000    
   4   1.0000E-05  1.0000E-05  1.0000E-05  1.0000E-05  1.0000E-05  1.0000E-05  1.0000E-05  1.0000E-05  1.0000E-05   0.000    
   5   1.0000E-05  1.0000E-05  1.0000E-05  1.0000E-05  1.0000E-05  1.0000E-05  1.0000E-05  1.0000E-05  1.0000E-05  1.0000E-05
   6   1.0000E-05  1.0000E-05  1.0000E-05  1.0000E-05  1.0000E-05  1.0000E-05  1.0000E-05  1.0000E-05  1.0000E-05  1.0000E-05
   7   1.0000E-05  1.0000E-05  1.0000E-05  1.0000E-05  1.0000E-05  1.0000E-05  1.0000E-05  1.0000E-05  1.0000E-05   0.000    
   8    0.000      1.0000E-05  1.0000E-05  1.0000E-05  1.0000E-05  1.0000E-05  1.0000E-05  1.0000E-05  1.0000E-05   0.000    
   9    0.000      1.0000E-05  1.0000E-05  1.0000E-05  1.0000E-05  1.0000E-05  1.0000E-05  1.0000E-05  1.0000E-05   0.000    
  10    0.000      1.0000E-05  1.0000E-05  1.0000E-05  1.0000E-05  1.0000E-05  1.0000E-05  1.0000E-05  1.0000E-05  1.0000E-05
  11    0.000      1.0000E-05  1.0000E-05  1.0000E-05  1.0000E-05  1.0000E-05  1.0000E-05  1.0000E-05  1.0000E-05   0.000    
  12   1.0000E-05  1.0000E-05  1.0000E-05  1.0000E-05  1.0000E-05  1.0000E-05  1.0000E-05  1.0000E-05  1.0000E-05   0.000    
  13   1.0000E-05  1.0000E-05  1.0000E-05  1.0000E-05  1.0000E-05  1.0000E-05  1.0000E-05  1.0000E-05  1.0000E-05   0.000    
  14    0.000      1.0000E-05  1.0000E-05  1.0000E-05  1.0000E-05  1.0000E-05  1.0000E-05  1.0000E-05  1.0000E-05   0.000    
  15    0.000       0.000      1.0000E-05  1.0000E-05  1.0000E-05  1.0000E-05   0.000       0.000       0.000       0.000    

     BROOKS-COREY EPSILON =   4.50000    

  SATURATED WATER CONTENT =  0.300000    

   RESIDUAL WATER CONTENT =  8.000000E-02

    INITIAL WATER CONTENT =  8.000000E-02

UNSATURATED FLOW RESULTS WILL BE PRINTED TO SEPARATE FILES FOR SELECTED MODEL CELLS, AND TIME STEPS AS DEFINED BY OUTPUT CONTROL PACKAGE 

SELECTED MODEL CELLS ARE: 
 ROW NUMBER  COLUMN NUMBER  FORTRAN UNIT NUMBER  OUTPUT OPTION


       6             4                 65                 1
       6             5                 66                 2
       8             4                 67                 3
       0             0                 68                 4



   8 GAGING STATIONS WERE SPECIFIED.
     (Lakes are identified by a negative value of the Lake Number)
     RECORDS WILL BE WRITTEN TO SEPARATE OUTPUT FILES REPRESENTED BY FOLLOWING UNIT NUMBERS:

 Stream Gages:
  GAGE #   SEGMENT   REACH   UNIT   OUTTYPE
       1       1       4      83       1
       2       2       3      84       1
       3       3       5      85       1
       4       4       3      86       1
       5       5       4      87       4
       6       6       5      88       4
       7       7       3      89       4
       8       8       6      90       4





 AG -- AG PACKAGE FOR NWT VERSION 1.3.0,  3/03/2020 INPUT READ FROM UNIT   57
 # AG options

 PROCESSING AG OPTIONS
 
 AGRICULTURAL DEMANDS WILL BE CALCULATED USING ET DEFICIT
 
 
 OPTION TO APPLY PUMPED WATER AS IRRIGATION IS ACTIVE. PUMPED IRRIGATION WATER WILL BE APPLIED TO          6 CELLS/RHUS.
 
 
 THE MAXIMUM NUMBER OF WELLS FOR SUPPLEMENTING DIVERSIONS OR APPLYING IRRIGATION IS          6 WELLS.
 
 
  UNFORMATTED CELL BY CELL RATES FOR SUP AND IRR WELLS WILL BE SAVED TO FILE UNIT NUMBER         -2
 
 
  UNFORMATTED CELL BY CELL RATES FOR SUP AND IRR WELLS WILL BE SAVED TO FILE UNIT NUMBER         -2
 
 
  GROUND WATER IRRIGATION, POTENTIAL AND ACTUAL ET WILL BE SAVED TO TIMES SERIES OUTPUT FILES.
 
 
  GROUND WATER IRRIGATION, POTENTIAL AND ACTUAL ET WILL BE SAVED TO TIMES SERIES OUTPUT FILES.
 

 END PROCESSING AG OPTIONS
 # AG time series

 PROCESSING TIME SERIES

 FINISHED READING TIME SERIES
 A total number of          0 AG output time series files were activated for SURFACE WATER 
 A total number of          2 AG output time series files were activated for GROUNDWATER 
 A total number of          0 AG output time series files were activated for SURFACE WATER ET
 A total number of          2 AG output time series files were activated for GROUNDWATER ET
1
                            STRESS PERIOD NO.    1, LENGTH =   86400.00    
                            -----------------------------------------------

                              NUMBER OF TIME STEPS =     1

                               MULTIPLIER FOR DELT =     1.000

                            INITIAL TIME STEP SIZE =   86400.00    

 BOUND. NO. LAYER   ROW   COL     STAGE      CONDUCTANCE         
 ----------------------------------------------------------------
      1      1     13      1       988.0          0.3800E-01
      2      1     14      9       1045.          0.3800E-01

      2 GHB CELLS



 CLASSIFICATION & COUNT OF STREAM SEGMENTS BASED ON SOURCE OF INFLOW:

                HEADWATER     DIVERSION     RECEIVES TRIBUTARY FLOW
                ---------     ---------     -----------------------
                     3              1               4



                    INPUT DATA FOR EACH STREAM SEGMENT
 ---------------------------------------------------------------------------------------------

 SEGMENT    SEG.     INFLOW   OVERLAND   STREAM    STREAM   ICALC  OUTFLOW  DIVERSION PRIORITY
    NO.    LENGTH     RATE     RUNOFF      ET       PPT.    METH.  TO SEG.  FROM SEG.    NO.

      1  2.305E+04 2.500E+01 0.000E+00 0.000E+00 0.000E+00    4        2        0        0
      2  2.650E+04 0.000E+00 0.000E+00 0.000E+00 0.000E+00    1        6        0        0
      3  2.750E+04 2.000E+00 0.000E+00 0.000E+00 0.000E+00    0        5        1        0
      4  1.100E+04 1.000E+01 0.000E+00 0.000E+00 0.000E+00    1        5        0        0
      5  1.500E+04 0.000E+00 0.000E+00 0.000E+00 0.000E+00    3        6        0        0
      6  2.200E+04 0.000E+00 0.000E+00 0.000E+00 0.000E+00    1        8        0        0
      7  1.550E+04 1.500E+02 0.000E+00 0.000E+00 0.000E+00    2        8        0        0
      8  2.800E+04 0.000E+00 0.000E+00 0.000E+00 0.000E+00    2        0        0        0


         STREAMBED PROPERTIES AND STREAM DIMENSIONS

 SEGMENT     BED HYD. COND.      BED THICKNESS     ELEV.-TOP OF BED     WIDTH OF STREAM     DEPTH OF STREAM    STREAM ROUGHNESS
    No.     UPPER     LOWER     UPPER     LOWER     UPPER     LOWER     UPPER     LOWER     UPPER     LOWER   CHANNEL      BANK

     1  3.000E-05 3.000E-05 3.000E+00 3.000E+00 1.095E+03 1.075E+03
     2  3.000E-05 3.000E-05 3.000E+00 3.000E+00 1.075E+03 1.050E+03 1.200E+01 1.200E+01                     3.000E-02
     3  3.000E-05 3.000E-05 2.000E+00 2.000E+00 1.075E+03 1.060E+03 1.000E+01 6.000E+00 2.000E+00 1.000E+00
     4  3.000E-05 3.000E-05 3.000E+00 3.000E+00 1.080E+03 1.060E+03 1.000E+01 1.000E+01                     3.000E-02
     5  3.000E-05 3.000E-05 3.000E+00 3.000E+00 1.060E+03 1.045E+03
     6  3.000E-05 3.000E-05 3.000E+00 3.000E+00 1.045E+03 1.025E+03 1.200E+01 1.200E+01                     3.000E-02
     7  6.000E-05 6.000E-05 3.000E+00 3.000E+00 1.040E+03 1.025E+03                                         2.500E-02 4.500E-02
     8  6.000E-05 6.000E-05 3.000E+00 3.000E+00 1.025E+03 9.900E+02                                         2.500E-02 4.500E-02

  EIGHT POINT CROSS-SECTION DATA FOR SEGMENTS WITH ICALC = 2
    X VALUES X VALUES START FROM LEFT SIDE LOOKING DOWNSTREAM

     SEGMENT NO.        X1        X2        X3        X4        X5        X6        X7        X8
            7      0.000E+00 1.000E+01 8.000E+01 1.000E+02 1.500E+02 1.700E+02 2.400E+02 2.500E+02
            8      0.000E+00 1.000E+01 8.000E+01 1.000E+02 1.500E+02 1.700E+02 2.400E+02 2.500E+02

    Z VALUES ARE RELATIVE TO STREAMBED ELEVATION

     SEGMENT NO.          Z1        Z2        Z3        Z4        Z5        Z6        Z7        Z8
            7      2.000E+01 1.300E+01 1.000E+01 2.000E+00 0.000E+00 1.000E+01 1.300E+01 2.000E+01
            8      2.500E+01 1.700E+01 1.300E+01 4.000E+00 0.000E+00 1.000E+01 1.600E+01 2.000E+01

 STREAMFLOW RELATION WITH DEPTH IS BASED ON EQUATION Q = CDPTH*(DEPTH)**FDPTH
 STREAMFLOW RELATION WITH WIDTH IS BASED ON EQUATION Q = AWDTH*(WIDTH)**BWDTH

 SEGMENT NO.      CDPTH     FDPTH    AWDTH     BWDTH

          5 3.000E-01 3.500E-01 3.800E+00 6.000E-01

 STREAMFLOW RELATION WITH DEPTH AND WIDTH IS BASED ON TABULATED VALUES

  SEGMENT NO.   STREAMFLOW       DEPTH       WIDTH

          1     5.0000E-01   2.5000E-01   3.0000E+00
          1     1.0000E+00   4.0000E-01   3.5000E+00
          1     2.0000E+00   5.5000E-01   4.2000E+00
          1     4.0000E+00   7.0000E-01   5.3000E+00
          1     7.0000E+00   8.0000E-01   7.0000E+00
          1     1.0000E+01   9.0000E-01   8.5000E+00
          1     2.0000E+01   1.1000E+00   1.2000E+01
          1     3.0000E+01   1.2500E+00   1.4000E+01
          1     5.0000E+01   1.4000E+00   1.7000E+01
          1     7.5000E+01   1.7000E+00   2.0000E+01
          1     1.0000E+02   1.8000E+00   2.2000E+01



TABULAR INFLOWS WERE READ FOR SEGMENT      1
FROM FILE UNIT NUMBER     55

          TIMES                    INFLOWS
         0.0000000000E+00     0.5000000000E+01
         0.8640000000E+05     0.2200000000E+02
         0.2760000000E+07     0.4200000000E+02
         0.5270000000E+07     0.7700000000E+02
         0.7950000000E+07     0.2800000000E+02
         0.1050000000E+08     0.9900000000E+02
         0.1320000000E+08     0.8300000000E+02
         0.1580000000E+08     0.7500000000E+02
         0.1850000000E+08     0.6100000000E+02
         0.2120000000E+08     0.4700000000E+02
         0.2380000000E+08     0.3500000000E+02
         0.2640000000E+08     0.2600000000E+02
         0.2900000000E+08     0.2300000000E+02
         0.3170000000E+08     0.1900000000E+02
         0.3440000000E+08     0.2100000000E+02
         0.3680000000E+08     0.9800000000E+02
         0.3950000000E+08     0.7500000000E+02
         0.4210000000E+08     0.6300000000E+02
         0.4480000000E+08     0.5800000000E+02
         0.4730000000E+08     0.5400000000E+02
         0.5000000000E+08     0.3700000000E+02
         0.5270000000E+08     0.2500000000E+02
         0.5530000000E+08     0.2200000000E+02
         0.5800000000E+08     0.2100000000E+02
         0.6060000000E+08     0.2000000000E+02
         0.6320000000E+08     0.1900000000E+02



            AREAL INFILTRATION RATE
 READING ON UNIT   19 WITH FORMAT: (FREE)              

            1           2           3           4           5           6           7           8           9          10
 ........................................................................................................................
   1   1.0000E-10  2.0000E-10   0.000       0.000       0.000       0.000       0.000       0.000       0.000       0.000    
   2   2.0000E-10  1.0000E-10  2.0000E-10   0.000       0.000      8.0000E-10  8.0000E-10  5.0000E-10   0.000       0.000    
   3    0.000      5.0000E-10  1.0000E-10  1.0000E-10  8.0000E-10  8.0000E-10  5.0000E-10  5.0000E-10   0.000       0.000    
   4   8.0000E-10  5.0000E-10  1.0000E-10  1.0000E-10  1.0000E-10  1.0000E-10  1.0000E-10  1.0000E-10  2.0000E-10   0.000    
   5   8.0000E-10  5.0000E-10  1.0000E-10  1.0000E-10  1.0000E-10  1.0000E-10  1.0000E-10  1.0000E-10  1.0000E-10  1.0000E-10
   6   8.0000E-10  5.0000E-10  5.0000E-10  2.0000E-10  2.0000E-10  1.0000E-10  1.0000E-10  1.0000E-10  1.0000E-10  5.0000E-10
   7   8.0000E-10  5.0000E-10  5.0000E-10  2.0000E-10  2.0000E-10  1.0000E-10  1.0000E-10  2.0000E-10  2.0000E-10   0.000    
   8    0.000      5.0000E-10  5.0000E-10  2.0000E-10  2.0000E-10  1.0000E-10  1.0000E-10  2.0000E-10  5.0000E-10   0.000    
   9    0.000      5.0000E-10  5.0000E-10  2.0000E-10  2.0000E-10  1.0000E-10  1.0000E-10  2.0000E-10  5.0000E-10   0.000    
  10    0.000      5.0000E-10  5.0000E-10  2.0000E-10  2.0000E-10  1.0000E-10  1.0000E-10  2.0000E-10  5.0000E-10  8.0000E-10
  11    0.000      1.0000E-10  1.0000E-10  1.0000E-10  1.0000E-10  1.0000E-10  1.0000E-10  2.0000E-10  5.0000E-10   0.000    
  12   1.0000E-10  1.0000E-10  1.0000E-10  1.0000E-10  1.0000E-10  1.0000E-10  1.0000E-10  1.0000E-10  2.0000E-10   0.000    
  13   1.0000E-10  1.0000E-10  2.0000E-10  2.0000E-10  2.0000E-10  2.0000E-10  2.0000E-10  1.0000E-10  1.0000E-10   0.000    
  14    0.000      2.0000E-10  5.0000E-10  5.0000E-10  5.0000E-10  5.0000E-10  5.0000E-10  2.0000E-10  1.0000E-10   0.000    
  15    0.000       0.000      8.0000E-10  8.0000E-10  8.0000E-10  8.0000E-10   0.000       0.000       0.000       0.000    

                  ET RATE =  1.000000E-08

      ET EXTINCTION DEPTH =  0.500000    

 EXTINCTION WATER CONTENT =  8.000000E-02

EXTINCTION WATER CONTENT FOR CELL AT ROW     1, COLUMN     1 IS LESS THAN RESIDUAL WATER CONTENT-- SETTING EXTINCTION WATER CONTENT EQUAL TO RESIDUAL WATER CONTENT

EXTINCTION WATER CONTENT FOR CELL AT ROW     1, COLUMN     2 IS LESS THAN RESIDUAL WATER CONTENT-- SETTING EXTINCTION WATER CONTENT EQUAL TO RESIDUAL WATER CONTENT

EXTINCTION WATER CONTENT FOR CELL AT ROW     2, COLUMN     1 IS LESS THAN RESIDUAL WATER CONTENT-- SETTING EXTINCTION WATER CONTENT EQUAL TO RESIDUAL WATER CONTENT

EXTINCTION WATER CONTENT FOR CELL AT ROW     2, COLUMN     2 IS LESS THAN RESIDUAL WATER CONTENT-- SETTING EXTINCTION WATER CONTENT EQUAL TO RESIDUAL WATER CONTENT

EXTINCTION WATER CONTENT FOR CELL AT ROW     2, COLUMN     3 IS LESS THAN RESIDUAL WATER CONTENT-- SETTING EXTINCTION WATER CONTENT EQUAL TO RESIDUAL WATER CONTENT

EXTINCTION WATER CONTENT FOR CELL AT ROW     2, COLUMN     6 IS LESS THAN RESIDUAL WATER CONTENT-- SETTING EXTINCTION WATER CONTENT EQUAL TO RESIDUAL WATER CONTENT

EXTINCTION WATER CONTENT FOR CELL AT ROW     2, COLUMN     7 IS LESS THAN RESIDUAL WATER CONTENT-- SETTING EXTINCTION WATER CONTENT EQUAL TO RESIDUAL WATER CONTENT

EXTINCTION WATER CONTENT FOR CELL AT ROW     2, COLUMN     8 IS LESS THAN RESIDUAL WATER CONTENT-- SETTING EXTINCTION WATER CONTENT EQUAL TO RESIDUAL WATER CONTENT

EXTINCTION WATER CONTENT FOR CELL AT ROW     3, COLUMN     2 IS LESS THAN RESIDUAL WATER CONTENT-- SETTING EXTINCTION WATER CONTENT EQUAL TO RESIDUAL WATER CONTENT

EXTINCTION WATER CONTENT FOR CELL AT ROW     3, COLUMN     3 IS LESS THAN RESIDUAL WATER CONTENT-- SETTING EXTINCTION WATER CONTENT EQUAL TO RESIDUAL WATER CONTENT

EXTINCTION WATER CONTENT FOR CELL AT ROW     3, COLUMN     4 IS LESS THAN RESIDUAL WATER CONTENT-- SETTING EXTINCTION WATER CONTENT EQUAL TO RESIDUAL WATER CONTENT

EXTINCTION WATER CONTENT FOR CELL AT ROW     3, COLUMN     5 IS LESS THAN RESIDUAL WATER CONTENT-- SETTING EXTINCTION WATER CONTENT EQUAL TO RESIDUAL WATER CONTENT

EXTINCTION WATER CONTENT FOR CELL AT ROW     3, COLUMN     6 IS LESS THAN RESIDUAL WATER CONTENT-- SETTING EXTINCTION WATER CONTENT EQUAL TO RESIDUAL WATER CONTENT

EXTINCTION WATER CONTENT FOR CELL AT ROW     3, COLUMN     7 IS LESS THAN RESIDUAL WATER CONTENT-- SETTING EXTINCTION WATER CONTENT EQUAL TO RESIDUAL WATER CONTENT

EXTINCTION WATER CONTENT FOR CELL AT ROW     3, COLUMN     8 IS LESS THAN RESIDUAL WATER CONTENT-- SETTING EXTINCTION WATER CONTENT EQUAL TO RESIDUAL WATER CONTENT

EXTINCTION WATER CONTENT FOR CELL AT ROW     4, COLUMN     1 IS LESS THAN RESIDUAL WATER CONTENT-- SETTING EXTINCTION WATER CONTENT EQUAL TO RESIDUAL WATER CONTENT

EXTINCTION WATER CONTENT FOR CELL AT ROW     4, COLUMN     2 IS LESS THAN RESIDUAL WATER CONTENT-- SETTING EXTINCTION WATER CONTENT EQUAL TO RESIDUAL WATER CONTENT

EXTINCTION WATER CONTENT FOR CELL AT ROW     4, COLUMN     3 IS LESS THAN RESIDUAL WATER CONTENT-- SETTING EXTINCTION WATER CONTENT EQUAL TO RESIDUAL WATER CONTENT

EXTINCTION WATER CONTENT FOR CELL AT ROW     4, COLUMN     4 IS LESS THAN RESIDUAL WATER CONTENT-- SETTING EXTINCTION WATER CONTENT EQUAL TO RESIDUAL WATER CONTENT

EXTINCTION WATER CONTENT FOR CELL AT ROW     4, COLUMN     5 IS LESS THAN RESIDUAL WATER CONTENT-- SETTING EXTINCTION WATER CONTENT EQUAL TO RESIDUAL WATER CONTENT

EXTINCTION WATER CONTENT FOR CELL AT ROW     4, COLUMN     6 IS LESS THAN RESIDUAL WATER CONTENT-- SETTING EXTINCTION WATER CONTENT EQUAL TO RESIDUAL WATER CONTENT

EXTINCTION WATER CONTENT FOR CELL AT ROW     4, COLUMN     7 IS LESS THAN RESIDUAL WATER CONTENT-- SETTING EXTINCTION WATER CONTENT EQUAL TO RESIDUAL WATER CONTENT

EXTINCTION WATER CONTENT FOR CELL AT ROW     4, COLUMN     8 IS LESS THAN RESIDUAL WATER CONTENT-- SETTING EXTINCTION WATER CONTENT EQUAL TO RESIDUAL WATER CONTENT

EXTINCTION WATER CONTENT FOR CELL AT ROW     4, COLUMN     9 IS LESS THAN RESIDUAL WATER CONTENT-- SETTING EXTINCTION WATER CONTENT EQUAL TO RESIDUAL WATER CONTENT

EXTINCTION WATER CONTENT FOR CELL AT ROW     5, COLUMN     1 IS LESS THAN RESIDUAL WATER CONTENT-- SETTING EXTINCTION WATER CONTENT EQUAL TO RESIDUAL WATER CONTENT

EXTINCTION WATER CONTENT FOR CELL AT ROW     5, COLUMN     2 IS LESS THAN RESIDUAL WATER CONTENT-- SETTING EXTINCTION WATER CONTENT EQUAL TO RESIDUAL WATER CONTENT

EXTINCTION WATER CONTENT FOR CELL AT ROW     5, COLUMN     3 IS LESS THAN RESIDUAL WATER CONTENT-- SETTING EXTINCTION WATER CONTENT EQUAL TO RESIDUAL WATER CONTENT

EXTINCTION WATER CONTENT FOR CELL AT ROW     5, COLUMN     4 IS LESS THAN RESIDUAL WATER CONTENT-- SETTING EXTINCTION WATER CONTENT EQUAL TO RESIDUAL WATER CONTENT

EXTINCTION WATER CONTENT FOR CELL AT ROW     5, COLUMN     5 IS LESS THAN RESIDUAL WATER CONTENT-- SETTING EXTINCTION WATER CONTENT EQUAL TO RESIDUAL WATER CONTENT

EXTINCTION WATER CONTENT FOR CELL AT ROW     5, COLUMN     6 IS LESS THAN RESIDUAL WATER CONTENT-- SETTING EXTINCTION WATER CONTENT EQUAL TO RESIDUAL WATER CONTENT

EXTINCTION WATER CONTENT FOR CELL AT ROW     5, COLUMN     7 IS LESS THAN RESIDUAL WATER CONTENT-- SETTING EXTINCTION WATER CONTENT EQUAL TO RESIDUAL WATER CONTENT

EXTINCTION WATER CONTENT FOR CELL AT ROW     5, COLUMN     8 IS LESS THAN RESIDUAL WATER CONTENT-- SETTING EXTINCTION WATER CONTENT EQUAL TO RESIDUAL WATER CONTENT

EXTINCTION WATER CONTENT FOR CELL AT ROW     5, COLUMN     9 IS LESS THAN RESIDUAL WATER CONTENT-- SETTING EXTINCTION WATER CONTENT EQUAL TO RESIDUAL WATER CONTENT

EXTINCTION WATER CONTENT FOR CELL AT ROW     5, COLUMN    10 IS LESS THAN RESIDUAL WATER CONTENT-- SETTING EXTINCTION WATER CONTENT EQUAL TO RESIDUAL WATER CONTENT

EXTINCTION WATER CONTENT FOR CELL AT ROW     6, COLUMN     1 IS LESS THAN RESIDUAL WATER CONTENT-- SETTING EXTINCTION WATER CONTENT EQUAL TO RESIDUAL WATER CONTENT

EXTINCTION WATER CONTENT FOR CELL AT ROW     6, COLUMN     2 IS LESS THAN RESIDUAL WATER CONTENT-- SETTING EXTINCTION WATER CONTENT EQUAL TO RESIDUAL WATER CONTENT

EXTINCTION WATER CONTENT FOR CELL AT ROW     6, COLUMN     3 IS LESS THAN RESIDUAL WATER CONTENT-- SETTING EXTINCTION WATER CONTENT EQUAL TO RESIDUAL WATER CONTENT

EXTINCTION WATER CONTENT FOR CELL AT ROW     6, COLUMN     4 IS LESS THAN RESIDUAL WATER CONTENT-- SETTING EXTINCTION WATER CONTENT EQUAL TO RESIDUAL WATER CONTENT

EXTINCTION WATER CONTENT FOR CELL AT ROW     6, COLUMN     5 IS LESS THAN RESIDUAL WATER CONTENT-- SETTING EXTINCTION WATER CONTENT EQUAL TO RESIDUAL WATER CONTENT

EXTINCTION WATER CONTENT FOR CELL AT ROW     6, COLUMN     6 IS LESS THAN RESIDUAL WATER CONTENT-- SETTING EXTINCTION WATER CONTENT EQUAL TO RESIDUAL WATER CONTENT

EXTINCTION WATER CONTENT FOR CELL AT ROW     6, COLUMN     7 IS LESS THAN RESIDUAL WATER CONTENT-- SETTING EXTINCTION WATER CONTENT EQUAL TO RESIDUAL WATER CONTENT

EXTINCTION WATER CONTENT FOR CELL AT ROW     6, COLUMN     8 IS LESS THAN RESIDUAL WATER CONTENT-- SETTING EXTINCTION WATER CONTENT EQUAL TO RESIDUAL WATER CONTENT

EXTINCTION WATER CONTENT FOR CELL AT ROW     6, COLUMN     9 IS LESS THAN RESIDUAL WATER CONTENT-- SETTING EXTINCTION WATER CONTENT EQUAL TO RESIDUAL WATER CONTENT

EXTINCTION WATER CONTENT FOR CELL AT ROW     6, COLUMN    10 IS LESS THAN RESIDUAL WATER CONTENT-- SETTING EXTINCTION WATER CONTENT EQUAL TO RESIDUAL WATER CONTENT

EXTINCTION WATER CONTENT FOR CELL AT ROW     7, COLUMN     1 IS LESS THAN RESIDUAL WATER CONTENT-- SETTING EXTINCTION WATER CONTENT EQUAL TO RESIDUAL WATER CONTENT

EXTINCTION WATER CONTENT FOR CELL AT ROW     7, COLUMN     2 IS LESS THAN RESIDUAL WATER CONTENT-- SETTING EXTINCTION WATER CONTENT EQUAL TO RESIDUAL WATER CONTENT

EXTINCTION WATER CONTENT FOR CELL AT ROW     7, COLUMN     3 IS LESS THAN RESIDUAL WATER CONTENT-- SETTING EXTINCTION WATER CONTENT EQUAL TO RESIDUAL WATER CONTENT

EXTINCTION WATER CONTENT FOR CELL AT ROW     7, COLUMN     4 IS LESS THAN RESIDUAL WATER CONTENT-- SETTING EXTINCTION WATER CONTENT EQUAL TO RESIDUAL WATER CONTENT

EXTINCTION WATER CONTENT FOR CELL AT ROW     7, COLUMN     5 IS LESS THAN RESIDUAL WATER CONTENT-- SETTING EXTINCTION WATER CONTENT EQUAL TO RESIDUAL WATER CONTENT

EXTINCTION WATER CONTENT FOR CELL AT ROW     7, COLUMN     6 IS LESS THAN RESIDUAL WATER CONTENT-- SETTING EXTINCTION WATER CONTENT EQUAL TO RESIDUAL WATER CONTENT

EXTINCTION WATER CONTENT FOR CELL AT ROW     7, COLUMN     7 IS LESS THAN RESIDUAL WATER CONTENT-- SETTING EXTINCTION WATER CONTENT EQUAL TO RESIDUAL WATER CONTENT

EXTINCTION WATER CONTENT FOR CELL AT ROW     7, COLUMN     8 IS LESS THAN RESIDUAL WATER CONTENT-- SETTING EXTINCTION WATER CONTENT EQUAL TO RESIDUAL WATER CONTENT

EXTINCTION WATER CONTENT FOR CELL AT ROW     7, COLUMN     9 IS LESS THAN RESIDUAL WATER CONTENT-- SETTING EXTINCTION WATER CONTENT EQUAL TO RESIDUAL WATER CONTENT

EXTINCTION WATER CONTENT FOR CELL AT ROW     8, COLUMN     2 IS LESS THAN RESIDUAL WATER CONTENT-- SETTING EXTINCTION WATER CONTENT EQUAL TO RESIDUAL WATER CONTENT

EXTINCTION WATER CONTENT FOR CELL AT ROW     8, COLUMN     3 IS LESS THAN RESIDUAL WATER CONTENT-- SETTING EXTINCTION WATER CONTENT EQUAL TO RESIDUAL WATER CONTENT

EXTINCTION WATER CONTENT FOR CELL AT ROW     8, COLUMN     4 IS LESS THAN RESIDUAL WATER CONTENT-- SETTING EXTINCTION WATER CONTENT EQUAL TO RESIDUAL WATER CONTENT

EXTINCTION WATER CONTENT FOR CELL AT ROW     8, COLUMN     5 IS LESS THAN RESIDUAL WATER CONTENT-- SETTING EXTINCTION WATER CONTENT EQUAL TO RESIDUAL WATER CONTENT

EXTINCTION WATER CONTENT FOR CELL AT ROW     8, COLUMN     6 IS LESS THAN RESIDUAL WATER CONTENT-- SETTING EXTINCTION WATER CONTENT EQUAL TO RESIDUAL WATER CONTENT

EXTINCTION WATER CONTENT FOR CELL AT ROW     8, COLUMN     7 IS LESS THAN RESIDUAL WATER CONTENT-- SETTING EXTINCTION WATER CONTENT EQUAL TO RESIDUAL WATER CONTENT

EXTINCTION WATER CONTENT FOR CELL AT ROW     8, COLUMN     8 IS LESS THAN RESIDUAL WATER CONTENT-- SETTING EXTINCTION WATER CONTENT EQUAL TO RESIDUAL WATER CONTENT

EXTINCTION WATER CONTENT FOR CELL AT ROW     8, COLUMN     9 IS LESS THAN RESIDUAL WATER CONTENT-- SETTING EXTINCTION WATER CONTENT EQUAL TO RESIDUAL WATER CONTENT

EXTINCTION WATER CONTENT FOR CELL AT ROW     9, COLUMN     2 IS LESS THAN RESIDUAL WATER CONTENT-- SETTING EXTINCTION WATER CONTENT EQUAL TO RESIDUAL WATER CONTENT

EXTINCTION WATER CONTENT FOR CELL AT ROW     9, COLUMN     3 IS LESS THAN RESIDUAL WATER CONTENT-- SETTING EXTINCTION WATER CONTENT EQUAL TO RESIDUAL WATER CONTENT

EXTINCTION WATER CONTENT FOR CELL AT ROW     9, COLUMN     4 IS LESS THAN RESIDUAL WATER CONTENT-- SETTING EXTINCTION WATER CONTENT EQUAL TO RESIDUAL WATER CONTENT

EXTINCTION WATER CONTENT FOR CELL AT ROW     9, COLUMN     5 IS LESS THAN RESIDUAL WATER CONTENT-- SETTING EXTINCTION WATER CONTENT EQUAL TO RESIDUAL WATER CONTENT

EXTINCTION WATER CONTENT FOR CELL AT ROW     9, COLUMN     6 IS LESS THAN RESIDUAL WATER CONTENT-- SETTING EXTINCTION WATER CONTENT EQUAL TO RESIDUAL WATER CONTENT

EXTINCTION WATER CONTENT FOR CELL AT ROW     9, COLUMN     7 IS LESS THAN RESIDUAL WATER CONTENT-- SETTING EXTINCTION WATER CONTENT EQUAL TO RESIDUAL WATER CONTENT

EXTINCTION WATER CONTENT FOR CELL AT ROW     9, COLUMN     8 IS LESS THAN RESIDUAL WATER CONTENT-- SETTING EXTINCTION WATER CONTENT EQUAL TO RESIDUAL WATER CONTENT

EXTINCTION WATER CONTENT FOR CELL AT ROW     9, COLUMN     9 IS LESS THAN RESIDUAL WATER CONTENT-- SETTING EXTINCTION WATER CONTENT EQUAL TO RESIDUAL WATER CONTENT

EXTINCTION WATER CONTENT FOR CELL AT ROW    10, COLUMN     2 IS LESS THAN RESIDUAL WATER CONTENT-- SETTING EXTINCTION WATER CONTENT EQUAL TO RESIDUAL WATER CONTENT

EXTINCTION WATER CONTENT FOR CELL AT ROW    10, COLUMN     3 IS LESS THAN RESIDUAL WATER CONTENT-- SETTING EXTINCTION WATER CONTENT EQUAL TO RESIDUAL WATER CONTENT

EXTINCTION WATER CONTENT FOR CELL AT ROW    10, COLUMN     4 IS LESS THAN RESIDUAL WATER CONTENT-- SETTING EXTINCTION WATER CONTENT EQUAL TO RESIDUAL WATER CONTENT

EXTINCTION WATER CONTENT FOR CELL AT ROW    10, COLUMN     5 IS LESS THAN RESIDUAL WATER CONTENT-- SETTING EXTINCTION WATER CONTENT EQUAL TO RESIDUAL WATER CONTENT

EXTINCTION WATER CONTENT FOR CELL AT ROW    10, COLUMN     6 IS LESS THAN RESIDUAL WATER CONTENT-- SETTING EXTINCTION WATER CONTENT EQUAL TO RESIDUAL WATER CONTENT

EXTINCTION WATER CONTENT FOR CELL AT ROW    10, COLUMN     7 IS LESS THAN RESIDUAL WATER CONTENT-- SETTING EXTINCTION WATER CONTENT EQUAL TO RESIDUAL WATER CONTENT

EXTINCTION WATER CONTENT FOR CELL AT ROW    10, COLUMN     8 IS LESS THAN RESIDUAL WATER CONTENT-- SETTING EXTINCTION WATER CONTENT EQUAL TO RESIDUAL WATER CONTENT

EXTINCTION WATER CONTENT FOR CELL AT ROW    10, COLUMN     9 IS LESS THAN RESIDUAL WATER CONTENT-- SETTING EXTINCTION WATER CONTENT EQUAL TO RESIDUAL WATER CONTENT

EXTINCTION WATER CONTENT FOR CELL AT ROW    10, COLUMN    10 IS LESS THAN RESIDUAL WATER CONTENT-- SETTING EXTINCTION WATER CONTENT EQUAL TO RESIDUAL WATER CONTENT

EXTINCTION WATER CONTENT FOR CELL AT ROW    11, COLUMN     2 IS LESS THAN RESIDUAL WATER CONTENT-- SETTING EXTINCTION WATER CONTENT EQUAL TO RESIDUAL WATER CONTENT

EXTINCTION WATER CONTENT FOR CELL AT ROW    11, COLUMN     3 IS LESS THAN RESIDUAL WATER CONTENT-- SETTING EXTINCTION WATER CONTENT EQUAL TO RESIDUAL WATER CONTENT

EXTINCTION WATER CONTENT FOR CELL AT ROW    11, COLUMN     4 IS LESS THAN RESIDUAL WATER CONTENT-- SETTING EXTINCTION WATER CONTENT EQUAL TO RESIDUAL WATER CONTENT

EXTINCTION WATER CONTENT FOR CELL AT ROW    11, COLUMN     5 IS LESS THAN RESIDUAL WATER CONTENT-- SETTING EXTINCTION WATER CONTENT EQUAL TO RESIDUAL WATER CONTENT

EXTINCTION WATER CONTENT FOR CELL AT ROW    11, COLUMN     6 IS LESS THAN RESIDUAL WATER CONTENT-- SETTING EXTINCTION WATER CONTENT EQUAL TO RESIDUAL WATER CONTENT

EXTINCTION WATER CONTENT FOR CELL AT ROW    11, COLUMN     7 IS LESS THAN RESIDUAL WATER CONTENT-- SETTING EXTINCTION WATER CONTENT EQUAL TO RESIDUAL WATER CONTENT

EXTINCTION WATER CONTENT FOR CELL AT ROW    11, COLUMN     8 IS LESS THAN RESIDUAL WATER CONTENT-- SETTING EXTINCTION WATER CONTENT EQUAL TO RESIDUAL WATER CONTENT

EXTINCTION WATER CONTENT FOR CELL AT ROW    11, COLUMN     9 IS LESS THAN RESIDUAL WATER CONTENT-- SETTING EXTINCTION WATER CONTENT EQUAL TO RESIDUAL WATER CONTENT

EXTINCTION WATER CONTENT FOR CELL AT ROW    12, COLUMN     1 IS LESS THAN RESIDUAL WATER CONTENT-- SETTING EXTINCTION WATER CONTENT EQUAL TO RESIDUAL WATER CONTENT

EXTINCTION WATER CONTENT FOR CELL AT ROW    12, COLUMN     2 IS LESS THAN RESIDUAL WATER CONTENT-- SETTING EXTINCTION WATER CONTENT EQUAL TO RESIDUAL WATER CONTENT

EXTINCTION WATER CONTENT FOR CELL AT ROW    12, COLUMN     3 IS LESS THAN RESIDUAL WATER CONTENT-- SETTING EXTINCTION WATER CONTENT EQUAL TO RESIDUAL WATER CONTENT

EXTINCTION WATER CONTENT FOR CELL AT ROW    12, COLUMN     4 IS LESS THAN RESIDUAL WATER CONTENT-- SETTING EXTINCTION WATER CONTENT EQUAL TO RESIDUAL WATER CONTENT

EXTINCTION WATER CONTENT FOR CELL AT ROW    12, COLUMN     5 IS LESS THAN RESIDUAL WATER CONTENT-- SETTING EXTINCTION WATER CONTENT EQUAL TO RESIDUAL WATER CONTENT

EXTINCTION WATER CONTENT FOR CELL AT ROW    12, COLUMN     6 IS LESS THAN RESIDUAL WATER CONTENT-- SETTING EXTINCTION WATER CONTENT EQUAL TO RESIDUAL WATER CONTENT

EXTINCTION WATER CONTENT FOR CELL AT ROW    12, COLUMN     7 IS LESS THAN RESIDUAL WATER CONTENT-- SETTING EXTINCTION WATER CONTENT EQUAL TO RESIDUAL WATER CONTENT

EXTINCTION WATER CONTENT FOR CELL AT ROW    12, COLUMN     8 IS LESS THAN RESIDUAL WATER CONTENT-- SETTING EXTINCTION WATER CONTENT EQUAL TO RESIDUAL WATER CONTENT

EXTINCTION WATER CONTENT FOR CELL AT ROW    12, COLUMN     9 IS LESS THAN RESIDUAL WATER CONTENT-- SETTING EXTINCTION WATER CONTENT EQUAL TO RESIDUAL WATER CONTENT

EXTINCTION WATER CONTENT FOR CELL AT ROW    13, COLUMN     1 IS LESS THAN RESIDUAL WATER CONTENT-- SETTING EXTINCTION WATER CONTENT EQUAL TO RESIDUAL WATER CONTENT

EXTINCTION WATER CONTENT FOR CELL AT ROW    13, COLUMN     2 IS LESS THAN RESIDUAL WATER CONTENT-- SETTING EXTINCTION WATER CONTENT EQUAL TO RESIDUAL WATER CONTENT

EXTINCTION WATER CONTENT FOR CELL AT ROW    13, COLUMN     3 IS LESS THAN RESIDUAL WATER CONTENT-- SETTING EXTINCTION WATER CONTENT EQUAL TO RESIDUAL WATER CONTENT

EXTINCTION WATER CONTENT FOR CELL AT ROW    13, COLUMN     4 IS LESS THAN RESIDUAL WATER CONTENT-- SETTING EXTINCTION WATER CONTENT EQUAL TO RESIDUAL WATER CONTENT

EXTINCTION WATER CONTENT FOR CELL AT ROW    13, COLUMN     5 IS LESS THAN RESIDUAL WATER CONTENT-- SETTING EXTINCTION WATER CONTENT EQUAL TO RESIDUAL WATER CONTENT

EXTINCTION WATER CONTENT FOR CELL AT ROW    13, COLUMN     6 IS LESS THAN RESIDUAL WATER CONTENT-- SETTING EXTINCTION WATER CONTENT EQUAL TO RESIDUAL WATER CONTENT

EXTINCTION WATER CONTENT FOR CELL AT ROW    13, COLUMN     7 IS LESS THAN RESIDUAL WATER CONTENT-- SETTING EXTINCTION WATER CONTENT EQUAL TO RESIDUAL WATER CONTENT

EXTINCTION WATER CONTENT FOR CELL AT ROW    13, COLUMN     8 IS LESS THAN RESIDUAL WATER CONTENT-- SETTING EXTINCTION WATER CONTENT EQUAL TO RESIDUAL WATER CONTENT

EXTINCTION WATER CONTENT FOR CELL AT ROW    13, COLUMN     9 IS LESS THAN RESIDUAL WATER CONTENT-- SETTING EXTINCTION WATER CONTENT EQUAL TO RESIDUAL WATER CONTENT

EXTINCTION WATER CONTENT FOR CELL AT ROW    14, COLUMN     2 IS LESS THAN RESIDUAL WATER CONTENT-- SETTING EXTINCTION WATER CONTENT EQUAL TO RESIDUAL WATER CONTENT

EXTINCTION WATER CONTENT FOR CELL AT ROW    14, COLUMN     3 IS LESS THAN RESIDUAL WATER CONTENT-- SETTING EXTINCTION WATER CONTENT EQUAL TO RESIDUAL WATER CONTENT

EXTINCTION WATER CONTENT FOR CELL AT ROW    14, COLUMN     4 IS LESS THAN RESIDUAL WATER CONTENT-- SETTING EXTINCTION WATER CONTENT EQUAL TO RESIDUAL WATER CONTENT

EXTINCTION WATER CONTENT FOR CELL AT ROW    14, COLUMN     5 IS LESS THAN RESIDUAL WATER CONTENT-- SETTING EXTINCTION WATER CONTENT EQUAL TO RESIDUAL WATER CONTENT

EXTINCTION WATER CONTENT FOR CELL AT ROW    14, COLUMN     6 IS LESS THAN RESIDUAL WATER CONTENT-- SETTING EXTINCTION WATER CONTENT EQUAL TO RESIDUAL WATER CONTENT

EXTINCTION WATER CONTENT FOR CELL AT ROW    14, COLUMN     7 IS LESS THAN RESIDUAL WATER CONTENT-- SETTING EXTINCTION WATER CONTENT EQUAL TO RESIDUAL WATER CONTENT

EXTINCTION WATER CONTENT FOR CELL AT ROW    14, COLUMN     8 IS LESS THAN RESIDUAL WATER CONTENT-- SETTING EXTINCTION WATER CONTENT EQUAL TO RESIDUAL WATER CONTENT

EXTINCTION WATER CONTENT FOR CELL AT ROW    14, COLUMN     9 IS LESS THAN RESIDUAL WATER CONTENT-- SETTING EXTINCTION WATER CONTENT EQUAL TO RESIDUAL WATER CONTENT

EXTINCTION WATER CONTENT FOR CELL AT ROW    15, COLUMN     3 IS LESS THAN RESIDUAL WATER CONTENT-- SETTING EXTINCTION WATER CONTENT EQUAL TO RESIDUAL WATER CONTENT

EXTINCTION WATER CONTENT FOR CELL AT ROW    15, COLUMN     4 IS LESS THAN RESIDUAL WATER CONTENT-- SETTING EXTINCTION WATER CONTENT EQUAL TO RESIDUAL WATER CONTENT

EXTINCTION WATER CONTENT FOR CELL AT ROW    15, COLUMN     5 IS LESS THAN RESIDUAL WATER CONTENT-- SETTING EXTINCTION WATER CONTENT EQUAL TO RESIDUAL WATER CONTENT

EXTINCTION WATER CONTENT FOR CELL AT ROW    15, COLUMN     6 IS LESS THAN RESIDUAL WATER CONTENT-- SETTING EXTINCTION WATER CONTENT EQUAL TO RESIDUAL WATER CONTENT

       AIR ENTRY PRESSURE = -0.100000    

            ROOT PRESSURE =  -30.0000    

            ROOT ACTIVITY =   1.00000    
 # AG well list

 PROCESSING WELL LIST

 LAYER   ROW   COL   MAX STRESS RATE         
 --------------------------------------------
      1      1      6      4     -0.1000E+05
      2      1      6      5     -0.1000E+05
      3      1      7      4     -0.1000E+05
      4      1      7      5     -0.1000E+05
      5      1      8      4     -0.1000E+05
      6      1      8      5     -0.1000E+05

 FINISHED READING WELL LIST
 # AG stress period

      6 WELLS

 PROCESSING AG STRESS PERIOD DATA

 READING AG STRESS PERIOD DATA

 READING IRRIGATION WELL

 END PROCESSING AG STRESS PERIOD DATA OPTIONS
 
 SOLVING FOR HEAD 
                                                   Max.-Head-Change                         Max.-Flux-Residual
  Residual-Control   Outer-Iter.   Inner-Iter.     Column Row Layer    Maximum-Head-Change  Column Row Layer    Maximum-Flux-Residual          L2-NORM 
          0                 1           6             2    2     1      -0.2729307452E+02       3    3    1        -0.3343270791E+01      0.9349602253E+01
          0                 2           6             1    1     1      -0.3190965432E+02       1   13    1        -0.1265339357E+03      0.1266532512E+03
          0                 3           6             1    1     1      -0.1572491794E+01       6   13    1        -0.2190257909E+01      0.4309171012E+01
          0                 4           5             5   13     1      -0.1413305573E+00       5   13    1        -0.2948449754E+00      0.3673593673E+00
          0                 5           4             5   14     1       0.3029532417E-01       5   13    1         0.1459711475E-01      0.2406404321E-01
          0                 6           2             5   14     1      -0.1189222913E-02       5   13    1        -0.5824423081E-03      0.1630050421E-02
          0                 7           1             5   14     1       0.1319549578E-04       7   10    1         0.2182441563E-04      0.6315083061E-04

    ------------------------------------------------
       NWT REQUIRED            7 OUTER ITERATIONS 
       AND A TOTAL OF         30 INNER ITERATIONS.
    ------------------------------------------------

 OUTPUT CONTROL FOR STRESS PERIOD    1   TIME STEP    1
    PRINT BUDGET
    PRINT HEAD FOR ALL LAYERS
    SAVE BUDGET
    SAVE HEAD FOR ALL LAYERS
 UBDSV2 SAVING "   CONSTANT HEAD" ON UNIT 102 AT TIME STEP  1, STRESS PERIOD   1
 UBDSV1 SAVING "FLOW RIGHT FACE " ON UNIT 102 AT TIME STEP  1, STRESS PERIOD   1
 UBDSV1 SAVING "FLOW FRONT FACE " ON UNIT 102 AT TIME STEP  1, STRESS PERIOD   1

  HEAD DEP BOUNDS   PERIOD    1   STEP     1
 BOUNDARY      1   LAYER   1   ROW    13   COL     1   RATE   -0.287309    
 BOUNDARY      2   LAYER   1   ROW    14   COL     9   RATE    0.285356    



 STREAM LISTING     PERIOD      1   STEP        1

 LAYER ROW COL. STREAM  RCH.  FLOW INTO     FLOW TO   FLOW OUT OF   OVRLND.     DIRECT     STREAM       STREAM     STREAM     STREAM   STREAMBED  STREAMBED
                SEG.NO.  NO.  STRM. RCH.    AQUIFER    STRM. RCH.    RUNOFF     PRECIP       ET          HEAD       DEPTH      WIDTH   CONDCTNC.   GRADIENT

   1    1    1     1     1    5.0000E+00  9.9080E-02   4.9009E+00  0.000E+00  0.000E+00  0.000E+00  1.09378E+03  7.365E-01  5.893E+00  2.652E-02  1.246E+00
   1    2    2     1     2    4.9009E+00  1.5199E-01   4.7489E+00  0.000E+00  0.000E+00  0.000E+00  1.08879E+03  7.320E-01  5.818E+00  4.072E-02  1.244E+00
   1    3    3     1     3    4.7489E+00  1.2820E-01   4.6207E+00  0.000E+00  0.000E+00  0.000E+00  1.08315E+03  7.269E-01  5.733E+00  3.440E-02  1.242E+00
   1    3    4     1     4    4.6207E+00  1.1689E-01   4.5038E+00  0.000E+00  0.000E+00  0.000E+00  1.07813E+03  7.223E-01  5.658E+00  3.140E-02  1.241E+00
   1    4    5     2     1    2.5038E+00  2.5694E-01   2.2469E+00  0.000E+00  0.000E+00  0.000E+00  1.07223E+03  2.942E-01  1.200E+01  7.800E-02  1.098E+00
   1    5    6     2     2    2.2469E+00  1.9662E-01   2.0503E+00  0.000E+00  0.000E+00  0.000E+00  1.06679E+03  2.770E-01  1.200E+01  6.000E-02  1.092E+00
   1    6    6     2     3    2.0503E+00  1.9569E-01   1.8546E+00  0.000E+00  0.000E+00  0.000E+00  1.06205E+03  2.615E-01  1.200E+01  6.000E-02  1.087E+00
   1    7    6     2     4    1.8546E+00  1.9473E-01   1.6599E+00  0.000E+00  0.000E+00  0.000E+00  1.05732E+03  2.455E-01  1.200E+01  6.000E-02  1.082E+00
   1    8    6     2     5    1.6599E+00  1.9373E-01   1.4661E+00  0.000E+00  0.000E+00  0.000E+00  1.05259E+03  2.288E-01  1.200E+01  6.000E-02  1.076E+00
   1    3    5     3     1    2.0000E+00  2.8252E-01   1.7175E+00  0.000E+00  0.000E+00  0.000E+00  1.07555E+03  1.909E+00  9.636E+00  7.227E-02  1.955E+00
   1    3    6     3     2    1.7175E+00  2.4905E-01   1.4684E+00  0.000E+00  0.000E+00  0.000E+00  1.07264E+03  1.727E+00  8.909E+00  6.682E-02  1.864E+00
   1    3    7     3     3    1.4684E+00  1.9718E-01   1.2712E+00  0.000E+00  0.000E+00  0.000E+00  1.06987E+03  1.555E+00  8.218E+00  5.547E-02  1.777E+00
   1    4    8     3     4    1.2712E+00  2.2567E-01   1.0456E+00  0.000E+00  0.000E+00  0.000E+00  1.06682E+03  1.364E+00  7.455E+00  6.709E-02  1.682E+00
   1    5    8     3     5    1.0456E+00  1.5790E-01   8.8768E-01  0.000E+00  0.000E+00  0.000E+00  1.06362E+03  1.164E+00  6.655E+00  4.991E-02  1.582E+00
   1    6    8     3     6    8.8768E-01  5.5980E-02   8.3170E-01  0.000E+00  0.000E+00  0.000E+00  1.06158E+03  1.036E+00  6.145E+00  1.844E-02  1.518E+00
   1    5   10     4     1    1.0000E+01  9.0919E-02   9.9091E+00  0.000E+00  0.000E+00  0.000E+00  1.07836E+03  6.368E-01  1.000E+01  2.500E-02  1.212E+00
   1    5    9     4     2    9.9091E+00  1.8158E-01   9.7275E+00  0.000E+00  0.000E+00  0.000E+00  1.07154E+03  6.315E-01  1.000E+01  5.000E-02  1.211E+00
   1    6    8     4     3    9.7275E+00  1.2689E-01   9.6006E+00  0.000E+00  0.000E+00  0.000E+00  1.06381E+03  6.256E-01  1.000E+01  3.500E-02  1.209E+00
   1    6    8     5     1    1.0432E+01  2.2686E-01   1.0205E+01  0.000E+00  0.000E+00  0.000E+00  1.05868E+03  6.790E-01  1.542E+01  6.166E-02  1.226E+00
   1    7    7     5     2    1.0205E+01  2.7894E-01   9.9265E+00  0.000E+00  0.000E+00  0.000E+00  1.05417E+03  6.732E-01  1.519E+01  7.594E-02  1.224E+00
   1    8    7     5     3    9.9265E+00  1.9221E-01   9.7343E+00  0.000E+00  0.000E+00  0.000E+00  1.04992E+03  6.676E-01  1.497E+01  5.241E-02  1.223E+00
   1    8    6     5     4    9.7343E+00  1.3577E-01   9.5985E+00  0.000E+00  0.000E+00  0.000E+00  1.04691E+03  6.637E-01  1.482E+01  3.706E-02  1.221E+00
   1    9    6     6     1    1.1065E+01  2.2465E-01   1.0840E+01  0.000E+00  0.000E+00  0.000E+00  1.04347E+03  7.442E-01  1.200E+01  6.000E-02  1.248E+00
   1   10    7     6     2    1.0840E+01  2.2410E-01   1.0616E+01  0.000E+00  0.000E+00  0.000E+00  1.03892E+03  7.350E-01  1.200E+01  6.000E-02  1.245E+00
   1   11    7     6     3    1.0616E+01  2.2354E-01   1.0392E+01  0.000E+00  0.000E+00  0.000E+00  1.03436E+03  7.257E-01  1.200E+01  6.000E-02  1.242E+00
   1   12    7     6     4    1.0392E+01  2.2299E-01   1.0169E+01  0.000E+00  0.000E+00  0.000E+00  1.02981E+03  7.165E-01  1.200E+01  6.000E-02  1.239E+00
   1   13    7     6     5    1.0169E+01 -1.0974E-01   1.0279E+01  0.000E+00  0.000E+00  0.000E+00  1.02662E+03  7.141E-01  1.200E+01  2.400E-01 -1.524E-01
   1   14    9     7     1    1.5000E+02  1.3299E+00   1.4867E+02  0.000E+00  0.000E+00  0.000E+00  1.03987E+03  2.288E+00  5.529E+01  5.593E-01  7.926E-01
   1   13    8     7     2    1.4867E+02  1.8245E+00   1.4685E+02  0.000E+00  0.000E+00  0.000E+00  1.03478E+03  2.279E+00  5.526E+01  6.148E-01  9.892E-01
   1   13    7     7     3    1.4685E+02  1.4573E+00   1.4539E+02  0.000E+00  0.000E+00  0.000E+00  1.02969E+03  2.271E+00  5.522E+01  5.585E-01  8.698E-01
   1   13    6     8     1    1.5567E+02  8.1890E-01   1.5485E+02  0.000E+00  0.000E+00  0.000E+00  1.02473E+03  2.853E+00  4.138E+01  4.216E-01  6.474E-01
   1   13    5     8     2    1.5485E+02  9.0639E-02   1.5476E+02  0.000E+00  0.000E+00  0.000E+00  1.01848E+03  2.850E+00  4.133E+01  4.212E-01  7.174E-02
   1   13    4     8     3    1.5476E+02 -2.7168E+00   1.5747E+02  0.000E+00  0.000E+00  0.000E+00  1.01223E+03  2.859E+00  4.146E+01  4.225E+00 -2.143E-01
   1   13    3     8     4    1.5747E+02 -3.7756E+00   1.6125E+02  0.000E+00  0.000E+00  0.000E+00  1.00601E+03  2.882E+00  4.178E+01  4.258E+00 -2.956E-01
   1   13    2     8     5    1.6125E+02 -2.6098E+00   1.6386E+02  0.000E+00  0.000E+00  0.000E+00  9.99778E+02  2.903E+00  4.209E+01  4.290E+00 -2.028E-01
   1   13    1     8     6    1.6386E+02 -1.9855E+00   1.6585E+02  0.000E+00  0.000E+00  0.000E+00  9.94793E+02  2.918E+00  4.232E+01  2.587E+00 -2.558E-01



 UBDSV3 SAVING "           GW ET" ON UNIT  61 AT TIME STEP  1, STRESS PERIOD   1
 UBDSV3 SAVING "    UZF RECHARGE" ON UNIT  61 AT TIME STEP  1, STRESS PERIOD   1
 UBDSV3 SAVING " SURFACE LEAKAGE" ON UNIT  61 AT TIME STEP  1, STRESS PERIOD   1
 UBDSV3 SAVING "       HORT+DUNN" ON UNIT  61 AT TIME STEP  1, STRESS PERIOD   1
 UBDSV3 SAVING "  STORAGE CHANGE" ON UNIT  61 AT TIME STEP  1, STRESS PERIOD   1


UNSATURATED ZONE PACKAGE VOLUMETRIC BUDGET FOR  TIME STEP     1 STRESS PERIOD    1
  ------------------------------------------------------------------------------



     CUMULATIVE VOLUMES      L**3       RATES FOR THIS TIME STEP      L**3/T
     ------------------                 ------------------------

           IN:                                      IN:
           ---                                      ---
        INFILTRATION =       73224.0000          INFILTRATION =           0.8475

          OUT:                                     OUT:
          ----                                     ----
              UZF ET =       0.0000E+00                UZF ET =       0.0000E+00
        UZF RECHARGE =       73224.0000          UZF RECHARGE =           0.8475

            IN - OUT =       0.0000E+00              IN - OUT =       0.0000E+00

          STORAGE:                                 STORAGE:
          --------                                 --------
      STORAGE CHANGE =       0.0000E+00        STORAGE CHANGE =       0.0000E+00

 PERCENT DISCREPANCY IS DIFFERENCE BETWEEN IN-OUT MINUS CHANGE IN STORAGE
 DIVIDED BY THE AVERAGE OF IN AND OUT TIMES 100

 PERCENT DISCREPANCY =           0.00     PERCENT DISCREPANCY =           0.00






 

            AG WELLS      PERIOD    1   STEP   1
 AG WELL      1   LAYER   1   ROW     6   COL     4   RATE     0.00000    
 AG WELL      2   LAYER   1   ROW     6   COL     5   RATE     0.00000    
 AG WELL      3   LAYER   1   ROW     7   COL     4   RATE     0.00000    
 AG WELL      4   LAYER   1   ROW     7   COL     5   RATE     0.00000    
 AG WELL      5   LAYER   1   ROW     8   COL     4   RATE     0.00000    
 AG WELL      6   LAYER   1   ROW     8   COL     5   RATE     0.00000    
 
 

        GW IRRIGATION     PERIOD    1   STEP   1
 
1
  VOLUMETRIC BUDGET FOR AGRICULTURAL FIELDS AT  END OF TIME STEP    1, STRESS PERIOD   1
  ------------------------------------------------------------------------------

     CUMULATIVE VOLUMES      L**3       RATES FOR THIS TIME STEP      L**3/T
     ------------------                 ------------------------

           IN:                                      IN:
           ---                                      ---
               AG WELLS  =           0.0000                 AG WELLS  =           0.0000
      DIVERSION SEGMENTS =           0.0000        DIVERSION SEGMENTS =           0.0000
           GW IRRIGATION =           0.0000             GW IRRIGATION =           0.0000
           SW IRRIGATION =           0.0000             SW IRRIGATION =           0.0000
        SYSTEM LOSSES GW =           0.0000          SYSTEM LOSSES GW =           0.0000
        SYSTEM LOSSES SW =           0.0000          SYSTEM LOSSES SW =           0.0000

                TOTAL IN =           0.0000                  TOTAL IN =           0.0000

          OUT:                                     OUT:
          ----                                     ----
               AG WELLS  =           0.0000                 AG WELLS  =           0.0000
      DIVERSION SEGMENTS =           0.0000        DIVERSION SEGMENTS =           0.0000
           GW IRRIGATION =           0.0000             GW IRRIGATION =           0.0000
           SW IRRIGATION =           0.0000             SW IRRIGATION =           0.0000
        SYSTEM LOSSES GW =           0.0000          SYSTEM LOSSES GW =           0.0000
        SYSTEM LOSSES SW =           0.0000          SYSTEM LOSSES SW =           0.0000

               TOTAL OUT =           0.0000                 TOTAL OUT =           0.0000

                IN - OUT =           0.0000                  IN - OUT =           0.0000

     PERCENT DISCREPANCY =           0.00         PERCENT DISCREPANCY =           0.00



1
              HEAD IN LAYER   1 AT END OF TIME STEP   1 IN STRESS PERIOD    1
  ---------------------------------------------------------------------------

           1       2       3       4       5       6       7       8       9      10
 ...................................................................................
   1  1033.17 1032.00 6999.00 6999.00 6999.00 6999.00 6999.00 6999.00 6999.00 6999.00
   2  1032.08 1030.71 1030.04 6999.00 6999.00 1030.93 1031.07 1031.03 6999.00 6999.00
   3  6999.00 1029.69 1029.34 1029.07 1029.57 1030.17 1030.64 1030.60 6999.00 6999.00
   4  1028.87 1028.86 1028.67 1028.45 1028.51 1028.55 1029.02 1030.06 1029.78 6999.00
   5  1028.40 1028.03 1027.85 1027.76 1027.85 1028.05 1028.21 1028.69 1029.31 1029.84
   6  1027.82 1027.26 1027.06 1027.03 1027.15 1027.48 1027.76 1028.28 1028.73 1029.66
   7  1027.30 1026.29 1026.12 1026.16 1026.33 1026.75 1027.18 1027.65 1028.16 6999.00
   8  6999.00 1024.89 1024.93 1025.09 1025.32 1025.82 1026.26 1026.98 1027.53 6999.00
   9  6999.00 1022.84 1023.17 1023.63 1024.02 1024.68 1025.20 1025.94 1027.05 6999.00
  10  6999.00 1019.98 1020.75 1021.80 1022.59 1023.61 1024.52 1025.57 1027.18 1027.82
  11  6999.00 1015.43 1016.86 1019.41 1021.05 1022.78 1024.32 1026.09 1028.27 6999.00
  12  1001.93 1007.97 1012.12 1016.09 1019.38 1022.37 1024.86 1028.24 1031.23 6999.00
  13   995.56 1000.39 1006.89 1012.88 1018.26 1022.79 1027.08 1031.81 1034.64 6999.00
  14  6999.00 1005.80 1008.89 1013.55 1018.32 1022.73 1027.63 1033.09 1037.49 6999.00
  15  6999.00 6999.00 1012.53 1015.26 1018.74 1021.76 6999.00 6999.00 6999.00 6999.00

 HEAD WILL BE SAVED ON UNIT   62 AT END OF TIME STEP    1, STRESS PERIOD    1
1
  VOLUMETRIC BUDGET FOR ENTIRE MODEL AT END OF TIME STEP    1, STRESS PERIOD   1
  ------------------------------------------------------------------------------

     CUMULATIVE VOLUMES      L**3       RATES FOR THIS TIME STEP      L**3/T
     ------------------                 ------------------------

           IN:                                      IN:
           ---                                      ---
             STORAGE     =           0.0000               STORAGE     =           0.0000
       CONSTANT HEAD     =           0.0000         CONSTANT HEAD     =           0.0000
     HEAD DEP BOUNDS     =       24654.7383       HEAD DEP BOUNDS     =           0.2854
      STREAM LEAKAGE     =      894399.3125        STREAM LEAKAGE     =          10.3518
        UZF RECHARGE     =       73223.9531          UZF RECHARGE     =           0.8475
               GW ET     =           0.0000                 GW ET     =           0.0000
     SURFACE LEAKAGE     =           0.0000       SURFACE LEAKAGE     =           0.0000
           AG WELLS      =           0.0000             AG WELLS      =           0.0000

                TOTAL IN =      992278.0000                  TOTAL IN =          11.4847

          OUT:                                     OUT:
          ----                                     ----
             STORAGE     =           0.0000               STORAGE     =           0.0000
       CONSTANT HEAD     =           0.0000         CONSTANT HEAD     =           0.0000
     HEAD DEP BOUNDS     =       24823.4590       HEAD DEP BOUNDS     =           0.2873
      STREAM LEAKAGE     =      967454.4375        STREAM LEAKAGE     =          11.1974
        UZF RECHARGE     =           0.0000          UZF RECHARGE     =           0.0000
               GW ET     =           0.0000                 GW ET     =           0.0000
     SURFACE LEAKAGE     =           0.0000       SURFACE LEAKAGE     =           0.0000
           AG WELLS      =           0.0000             AG WELLS      =           0.0000

               TOTAL OUT =      992277.8750                 TOTAL OUT =          11.4847

                IN - OUT =           0.1250                  IN - OUT =       9.5367E-07

     PERCENT DISCREPANCY =           0.00         PERCENT DISCREPANCY =           0.00






         TIME SUMMARY AT END OF TIME STEP    1 IN STRESS PERIOD    1
                    SECONDS     MINUTES      HOURS       DAYS        YEARS
                    -----------------------------------------------------------
   TIME STEP LENGTH  86400.      1440.0      24.000      1.0000     2.73785E-03
 STRESS PERIOD TIME  86400.      1440.0      24.000      1.0000     2.73785E-03
         TOTAL TIME  86400.      1440.0      24.000      1.0000     2.73785E-03
1
1
                            STRESS PERIOD NO.    2, LENGTH =   2630000.    
                            -----------------------------------------------

                              NUMBER OF TIME STEPS =    30

                               MULTIPLIER FOR DELT =     1.000

                            INITIAL TIME STEP SIZE =   87666.66    

 REUSING NON-PARAMETER GHB CELLS FROM LAST STRESS PERIOD

      2 GHB CELLS

 REUSING STREAM SEGMENT DATA FROM LAST STRESS PERIOD



            AREAL INFILTRATION RATE
 READING ON UNIT   19 WITH FORMAT: (FREE)              

            1           2           3           4           5           6           7           8           9          10
 ........................................................................................................................
   1   1.0000E-10  2.0000E-10   0.000       0.000       0.000       0.000       0.000       0.000       0.000       0.000    
   2   2.0000E-10  1.0000E-10  2.0000E-10   0.000       0.000      8.0000E-10  8.0000E-10  5.0000E-10   0.000       0.000    
   3    0.000      5.0000E-10  1.0000E-10  1.0000E-10  8.0000E-10  8.0000E-10  5.0000E-10  5.0000E-10   0.000       0.000    
   4   8.0000E-10  5.0000E-10  1.0000E-10  1.0000E-10  1.0000E-10  1.0000E-10  1.0000E-10  1.0000E-10  2.0000E-10   0.000    
   5   8.0000E-10  5.0000E-10  1.0000E-10  1.0000E-10  1.0000E-10  1.0000E-10  1.0000E-10  1.0000E-10  1.0000E-10  1.0000E-10
   6   8.0000E-10  5.0000E-10  5.0000E-10  2.0000E-10  2.0000E-10  1.0000E-10  1.0000E-10  1.0000E-10  1.0000E-10  5.0000E-10
   7   8.0000E-10  5.0000E-10  5.0000E-10  2.0000E-10  2.0000E-10  1.0000E-10  1.0000E-10  2.0000E-10  2.0000E-10   0.000    
   8    0.000      5.0000E-10  5.0000E-10  2.0000E-10  2.0000E-10  1.0000E-10  1.0000E-10  2.0000E-10  5.0000E-10   0.000    
   9    0.000      5.0000E-10  5.0000E-10  2.0000E-10  2.0000E-10  1.0000E-10  1.0000E-10  2.0000E-10  5.0000E-10   0.000    
  10    0.000      5.0000E-10  5.0000E-10  2.0000E-10  2.0000E-10  1.0000E-10  1.0000E-10  2.0000E-10  5.0000E-10  8.0000E-10
  11    0.000      1.0000E-10  1.0000E-10  1.0000E-10  1.0000E-10  1.0000E-10  1.0000E-10  2.0000E-10  5.0000E-10   0.000    
  12   1.0000E-10  1.0000E-10  1.0000E-10  1.0000E-10  1.0000E-10  1.0000E-10  1.0000E-10  1.0000E-10  2.0000E-10   0.000    
  13   1.0000E-10  1.0000E-10  2.0000E-10  2.0000E-10  2.0000E-10  2.0000E-10  2.0000E-10  1.0000E-10  1.0000E-10   0.000    
  14    0.000      2.0000E-10  5.0000E-10  5.0000E-10  5.0000E-10  5.0000E-10  5.0000E-10  2.0000E-10  1.0000E-10   0.000    
  15    0.000       0.000      8.0000E-10  8.0000E-10  8.0000E-10  8.0000E-10   0.000       0.000       0.000       0.000    

                  ET RATE =  5.000000E-10

 USING ET EXTINCTION DEPTH FROM PREVIOUS STRESS PERIOD. CURRENT PERIOD IS:       2

 USING EXTINCTION WATER CONTENT FROM PREVIOUS STRESS PERIOD. CURRENT PERIOD IS:       2

 USING AIR ENTRY PRESSURE FROM PREVIOUS STRESS PERIOD. CURRENT PERIOD IS:       2

 USING ROOT PRESSURE HEAD FROM PREVIOUS STRESS PERIOD. CURRENT PERIOD IS:       2

 USING ROOT ACTIVITY FROM PREVIOUS STRESS PERIOD. CURRENT PERIOD IS:       2

 PROCESSING AG STRESS PERIOD DATA

 READING AG STRESS PERIOD DATA

 READING IRRIGATION WELL

 END PROCESSING AG STRESS PERIOD DATA OPTIONS
 
 SOLVING FOR HEAD 
                                                   Max.-Head-Change                         Max.-Flux-Residual
  Residual-Control   Outer-Iter.   Inner-Iter.     Column Row Layer    Maximum-Head-Change  Column Row Layer    Maximum-Flux-Residual          L2-NORM 
          0                 1           2             4   13     1       0.6100919041E-02       4   13    1         0.3498418340E+00      0.7241930586E+00
          0                 2           2             4   13     1      -0.5804860109E-03       4   13    1        -0.3422487416E-01      0.7535301527E-01
          0                 3           1             4   13     1       0.3890269108E-04       4   13    1         0.2358247986E-02      0.5142529305E-02

    ------------------------------------------------
       NWT REQUIRED            3 OUTER ITERATIONS 
       AND A TOTAL OF          5 INNER ITERATIONS.
    ------------------------------------------------

 OUTPUT CONTROL FOR STRESS PERIOD    2   TIME STEP    1
    PRINT BUDGET
    PRINT HEAD FOR ALL LAYERS
    SAVE BUDGET
 UBDSV1 SAVING "         STORAGE" ON UNIT 102 AT TIME STEP  1, STRESS PERIOD   2
 UBDSV2 SAVING "   CONSTANT HEAD" ON UNIT 102 AT TIME STEP  1, STRESS PERIOD   2
 UBDSV1 SAVING "FLOW RIGHT FACE " ON UNIT 102 AT TIME STEP  1, STRESS PERIOD   2
 UBDSV1 SAVING "FLOW FRONT FACE " ON UNIT 102 AT TIME STEP  1, STRESS PERIOD   2

  HEAD DEP BOUNDS   PERIOD    2   STEP     1
 BOUNDARY      1   LAYER   1   ROW    13   COL     1   RATE   -0.287428    
 BOUNDARY      2   LAYER   1   ROW    14   COL     9   RATE    0.285357    



 STREAM LISTING     PERIOD      2   STEP        1

 LAYER ROW COL. STREAM  RCH.  FLOW INTO     FLOW TO   FLOW OUT OF   OVRLND.     DIRECT     STREAM       STREAM     STREAM     STREAM   STREAMBED  STREAMBED
                SEG.NO.  NO.  STRM. RCH.    AQUIFER    STRM. RCH.    RUNOFF     PRECIP       ET          HEAD       DEPTH      WIDTH   CONDCTNC.   GRADIENT

   1    1    1     1     1    2.2000E+01  2.3088E-01   2.1769E+01  0.000E+00  0.000E+00  0.000E+00  1.09418E+03  1.132E+00  1.242E+01  5.588E-02  1.377E+00
   1    2    2     1     2    2.1769E+01  3.5689E-01   2.1412E+01  0.000E+00  0.000E+00  0.000E+00  1.08919E+03  1.127E+00  1.235E+01  8.648E-02  1.376E+00
   1    3    3     1     3    2.1412E+01  3.0372E-01   2.1109E+01  0.000E+00  0.000E+00  0.000E+00  1.08354E+03  1.121E+00  1.228E+01  7.369E-02  1.374E+00
   1    3    4     1     4    2.1109E+01  2.7914E-01   2.0829E+01  0.000E+00  0.000E+00  0.000E+00  1.07852E+03  1.117E+00  1.222E+01  6.781E-02  1.372E+00
   1    4    5     2     1    1.8829E+01  3.1306E-01   1.8516E+01  0.000E+00  0.000E+00  0.000E+00  1.07295E+03  1.014E+00  1.200E+01  7.800E-02  1.338E+00
   1    5    6     2     2    1.8516E+01  2.4027E-01   1.8276E+01  0.000E+00  0.000E+00  0.000E+00  1.06751E+03  1.005E+00  1.200E+01  6.000E-02  1.335E+00
   1    6    6     2     3    1.8276E+01  2.3980E-01   1.8036E+01  0.000E+00  0.000E+00  0.000E+00  1.06279E+03  9.967E-01  1.200E+01  6.000E-02  1.332E+00
   1    7    6     2     4    1.8036E+01  2.3933E-01   1.7797E+01  0.000E+00  0.000E+00  0.000E+00  1.05806E+03  9.888E-01  1.200E+01  6.000E-02  1.330E+00
   1    8    6     2     5    1.7797E+01  2.3885E-01   1.7558E+01  0.000E+00  0.000E+00  0.000E+00  1.05334E+03  9.808E-01  1.200E+01  6.000E-02  1.327E+00
   1    3    5     3     1    2.0000E+00  2.8252E-01   1.7175E+00  0.000E+00  0.000E+00  0.000E+00  1.07555E+03  1.909E+00  9.636E+00  7.227E-02  1.955E+00
   1    3    6     3     2    1.7175E+00  2.4905E-01   1.4684E+00  0.000E+00  0.000E+00  0.000E+00  1.07264E+03  1.727E+00  8.909E+00  6.682E-02  1.864E+00
   1    3    7     3     3    1.4684E+00  1.9718E-01   1.2712E+00  0.000E+00  0.000E+00  0.000E+00  1.06987E+03  1.555E+00  8.218E+00  5.547E-02  1.777E+00
   1    4    8     3     4    1.2712E+00  2.2567E-01   1.0456E+00  0.000E+00  0.000E+00  0.000E+00  1.06682E+03  1.364E+00  7.455E+00  6.709E-02  1.682E+00
   1    5    8     3     5    1.0456E+00  1.5790E-01   8.8768E-01  0.000E+00  0.000E+00  0.000E+00  1.06362E+03  1.164E+00  6.655E+00  4.991E-02  1.582E+00
   1    6    8     3     6    8.8768E-01  5.5980E-02   8.3170E-01  0.000E+00  0.000E+00  0.000E+00  1.06158E+03  1.036E+00  6.145E+00  1.844E-02  1.518E+00
   1    5   10     4     1    1.0000E+01  9.0919E-02   9.9091E+00  0.000E+00  0.000E+00  0.000E+00  1.07836E+03  6.368E-01  1.000E+01  2.500E-02  1.212E+00
   1    5    9     4     2    9.9091E+00  1.8158E-01   9.7275E+00  0.000E+00  0.000E+00  0.000E+00  1.07154E+03  6.315E-01  1.000E+01  5.000E-02  1.211E+00
   1    6    8     4     3    9.7275E+00  1.2689E-01   9.6006E+00  0.000E+00  0.000E+00  0.000E+00  1.06381E+03  6.256E-01  1.000E+01  3.500E-02  1.209E+00
   1    6    8     5     1    1.0432E+01  2.2686E-01   1.0205E+01  0.000E+00  0.000E+00  0.000E+00  1.05868E+03  6.790E-01  1.542E+01  6.166E-02  1.226E+00
   1    7    7     5     2    1.0205E+01  2.7894E-01   9.9265E+00  0.000E+00  0.000E+00  0.000E+00  1.05417E+03  6.732E-01  1.519E+01  7.594E-02  1.224E+00
   1    8    7     5     3    9.9265E+00  1.9221E-01   9.7343E+00  0.000E+00  0.000E+00  0.000E+00  1.04992E+03  6.676E-01  1.497E+01  5.241E-02  1.223E+00
   1    8    6     5     4    9.7343E+00  1.3577E-01   9.5985E+00  0.000E+00  0.000E+00  0.000E+00  1.04691E+03  6.637E-01  1.482E+01  3.706E-02  1.221E+00
   1    9    6     6     1    2.7157E+01  2.5677E-01   2.6900E+01  0.000E+00  0.000E+00  0.000E+00  1.04401E+03  1.280E+00  1.200E+01  6.000E-02  1.427E+00
   1   10    7     6     2    2.6900E+01  2.5634E-01   2.6643E+01  0.000E+00  0.000E+00  0.000E+00  1.03945E+03  1.272E+00  1.200E+01  6.000E-02  1.424E+00
   1   11    7     6     3    2.6643E+01  2.5590E-01   2.6388E+01  0.000E+00  0.000E+00  0.000E+00  1.03490E+03  1.265E+00  1.200E+01  6.000E-02  1.422E+00
   1   12    7     6     4    2.6388E+01  2.5546E-01   2.6132E+01  0.000E+00  0.000E+00  0.000E+00  1.03035E+03  1.258E+00  1.200E+01  6.000E-02  1.419E+00
   1   13    7     6     5    2.6132E+01  1.9386E-03   2.6130E+01  0.000E+00  0.000E+00  0.000E+00  1.02716E+03  1.254E+00  1.200E+01  2.400E-02  2.692E-02
   1   14    9     7     1    1.5000E+02  1.3299E+00   1.4867E+02  0.000E+00  0.000E+00  0.000E+00  1.03987E+03  2.288E+00  5.529E+01  5.593E-01  7.926E-01
   1   13    8     7     2    1.4867E+02  1.8245E+00   1.4685E+02  0.000E+00  0.000E+00  0.000E+00  1.03478E+03  2.279E+00  5.526E+01  6.148E-01  9.892E-01
   1   13    7     7     3    1.4685E+02  1.4563E+00   1.4539E+02  0.000E+00  0.000E+00  0.000E+00  1.02969E+03  2.271E+00  5.522E+01  5.585E-01  8.692E-01
   1   13    6     8     1    1.7152E+02  8.9491E-01   1.7062E+02  0.000E+00  0.000E+00  0.000E+00  1.02483E+03  2.959E+00  4.291E+01  4.372E-01  6.822E-01
   1   13    5     8     2    1.7062E+02  1.3970E-01   1.7048E+02  0.000E+00  0.000E+00  0.000E+00  1.01858E+03  2.956E+00  4.286E+01  4.368E-01  1.066E-01
   1   13    4     8     3    1.7048E+02 -2.3855E+00   1.7287E+02  0.000E+00  0.000E+00  0.000E+00  1.01234E+03  2.963E+00  4.296E+01  4.378E+00 -1.816E-01
   1   13    3     8     4    1.7287E+02 -3.4863E+00   1.7636E+02  0.000E+00  0.000E+00  0.000E+00  1.00611E+03  2.982E+00  4.324E+01  4.406E+00 -2.637E-01
   1   13    2     8     5    1.7636E+02 -2.2902E+00   1.7865E+02  0.000E+00  0.000E+00  0.000E+00  9.99875E+02  3.000E+00  4.351E+01  4.433E+00 -1.722E-01
   1   13    1     8     6    1.7865E+02 -1.8047E+00   1.8045E+02  0.000E+00  0.000E+00  0.000E+00  9.94888E+02  3.013E+00  4.369E+01  2.671E+00 -2.252E-01



 UBDSV3 SAVING "           GW ET" ON UNIT  61 AT TIME STEP  1, STRESS PERIOD   2
 UBDSV3 SAVING "    UZF RECHARGE" ON UNIT  61 AT TIME STEP  1, STRESS PERIOD   2
 UBDSV3 SAVING " SURFACE LEAKAGE" ON UNIT  61 AT TIME STEP  1, STRESS PERIOD   2
 UBDSV3 SAVING "       HORT+DUNN" ON UNIT  61 AT TIME STEP  1, STRESS PERIOD   2
 UBDSV3 SAVING "  STORAGE CHANGE" ON UNIT  61 AT TIME STEP  1, STRESS PERIOD   2


UNSATURATED ZONE PACKAGE VOLUMETRIC BUDGET FOR  TIME STEP     1 STRESS PERIOD    2
  ------------------------------------------------------------------------------



     CUMULATIVE VOLUMES      L**3       RATES FOR THIS TIME STEP      L**3/T
     ------------------                 ------------------------

           IN:                                      IN:
           ---                                      ---
        INFILTRATION =      147521.4958          INFILTRATION =           0.8475

          OUT:                                     OUT:
          ----                                     ----
              UZF ET =       65709.6723                UZF ET =           0.7495
        UZF RECHARGE =       73224.0000          UZF RECHARGE =       0.0000E+00

            IN - OUT =        8587.8235              IN - OUT =       9.7960E-02

          STORAGE:                                 STORAGE:
          --------                                 --------
      STORAGE CHANGE =        8587.8244        STORAGE CHANGE =       9.7960E-02

 PERCENT DISCREPANCY IS DIFFERENCE BETWEEN IN-OUT MINUS CHANGE IN STORAGE
 DIVIDED BY THE AVERAGE OF IN AND OUT TIMES 100

 PERCENT DISCREPANCY =           0.00     PERCENT DISCREPANCY =           0.00






 

            AG WELLS      PERIOD    2   STEP   1
 AG WELL      1   LAYER   1   ROW     6   COL     4   RATE     0.00000    
 AG WELL      2   LAYER   1   ROW     6   COL     5   RATE     0.00000    
 AG WELL      3   LAYER   1   ROW     7   COL     4   RATE     0.00000    
 AG WELL      4   LAYER   1   ROW     7   COL     5   RATE     0.00000    
 AG WELL      5   LAYER   1   ROW     8   COL     4   RATE     0.00000    
 AG WELL      6   LAYER   1   ROW     8   COL     5   RATE     0.00000    
 
 

        GW IRRIGATION     PERIOD    2   STEP   1
 
1
  VOLUMETRIC BUDGET FOR AGRICULTURAL FIELDS AT  END OF TIME STEP    1, STRESS PERIOD   2
  ------------------------------------------------------------------------------

     CUMULATIVE VOLUMES      L**3       RATES FOR THIS TIME STEP      L**3/T
     ------------------                 ------------------------

           IN:                                      IN:
           ---                                      ---
               AG WELLS  =           0.0000                 AG WELLS  =           0.0000
      DIVERSION SEGMENTS =           0.0000        DIVERSION SEGMENTS =           0.0000
           GW IRRIGATION =           0.0000             GW IRRIGATION =           0.0000
           SW IRRIGATION =           0.0000             SW IRRIGATION =           0.0000
        SYSTEM LOSSES GW =           0.0000          SYSTEM LOSSES GW =           0.0000
        SYSTEM LOSSES SW =           0.0000          SYSTEM LOSSES SW =           0.0000

                TOTAL IN =           0.0000                  TOTAL IN =           0.0000

          OUT:                                     OUT:
          ----                                     ----
               AG WELLS  =           0.0000                 AG WELLS  =           0.0000
      DIVERSION SEGMENTS =           0.0000        DIVERSION SEGMENTS =           0.0000
           GW IRRIGATION =           0.0000             GW IRRIGATION =           0.0000
           SW IRRIGATION =           0.0000             SW IRRIGATION =           0.0000
        SYSTEM LOSSES GW =           0.0000          SYSTEM LOSSES GW =           0.0000
        SYSTEM LOSSES SW =           0.0000          SYSTEM LOSSES SW =           0.0000

               TOTAL OUT =           0.0000                 TOTAL OUT =           0.0000

                IN - OUT =           0.0000                  IN - OUT =           0.0000

     PERCENT DISCREPANCY =           0.00         PERCENT DISCREPANCY =           0.00



1
              HEAD IN LAYER   1 AT END OF TIME STEP   1 IN STRESS PERIOD    2
  ---------------------------------------------------------------------------

           1       2       3       4       5       6       7       8       9      10
 ...................................................................................
   1  1033.17 1032.00 6999.00 6999.00 6999.00 6999.00 6999.00 6999.00 6999.00 6999.00
   2  1032.08 1030.72 1030.04 6999.00 6999.00 1030.93 1031.07 1031.03 6999.00 6999.00
   3  6999.00 1029.69 1029.34 1029.07 1029.57 1030.17 1030.64 1030.60 6999.00 6999.00
   4  1028.87 1028.86 1028.67 1028.45 1028.51 1028.55 1029.02 1030.06 1029.78 6999.00
   5  1028.40 1028.03 1027.85 1027.76 1027.85 1028.05 1028.21 1028.69 1029.31 1029.84
   6  1027.82 1027.26 1027.06 1027.03 1027.15 1027.48 1027.76 1028.28 1028.73 1029.66
   7  1027.30 1026.29 1026.12 1026.16 1026.33 1026.75 1027.18 1027.65 1028.15 6999.00
   8  6999.00 1024.89 1024.92 1025.09 1025.32 1025.83 1026.26 1026.98 1027.53 6999.00
   9  6999.00 1022.84 1023.17 1023.63 1024.02 1024.68 1025.20 1025.94 1027.05 6999.00
  10  6999.00 1019.98 1020.75 1021.80 1022.59 1023.61 1024.52 1025.57 1027.18 1027.82
  11  6999.00 1015.43 1016.86 1019.41 1021.05 1022.78 1024.32 1026.09 1028.27 6999.00
  12  1001.93 1007.97 1012.12 1016.09 1019.38 1022.37 1024.86 1028.24 1031.22 6999.00
  13   995.56 1000.39 1006.90 1012.88 1018.26 1022.79 1027.08 1031.81 1034.64 6999.00
  14  6999.00 1005.80 1008.89 1013.55 1018.32 1022.73 1027.63 1033.09 1037.49 6999.00
  15  6999.00 6999.00 1012.53 1015.26 1018.74 1021.76 6999.00 6999.00 6999.00 6999.00
1
  VOLUMETRIC BUDGET FOR ENTIRE MODEL AT END OF TIME STEP    1, STRESS PERIOD   2
  ------------------------------------------------------------------------------

     CUMULATIVE VOLUMES      L**3       RATES FOR THIS TIME STEP      L**3/T
     ------------------                 ------------------------

           IN:                                      IN:
           ---                                      ---
             STORAGE     =       66398.0156               STORAGE     =           0.7574
       CONSTANT HEAD     =           0.0000         CONSTANT HEAD     =           0.0000
     HEAD DEP BOUNDS     =       49671.0742       HEAD DEP BOUNDS     =           0.2854
      STREAM LEAKAGE     =     1903893.3750        STREAM LEAKAGE     =          11.5151
        UZF RECHARGE     =       73223.9531          UZF RECHARGE     =           0.0000
               GW ET     =           0.0000                 GW ET     =           0.0000
     SURFACE LEAKAGE     =           0.0000       SURFACE LEAKAGE     =           0.0000
           AG WELLS      =           0.0000             AG WELLS      =           0.0000

                TOTAL IN =     2093186.5000                  TOTAL IN =          12.5579

          OUT:                                     OUT:
          ----                                     ----
             STORAGE     =      201998.7969               STORAGE     =           2.3042
       CONSTANT HEAD     =           0.0000         CONSTANT HEAD     =           0.0000
     HEAD DEP BOUNDS     =       50021.2812       HEAD DEP BOUNDS     =           0.2874
      STREAM LEAKAGE     =     1841208.7500        STREAM LEAKAGE     =           9.9668
        UZF RECHARGE     =           0.0000          UZF RECHARGE     =           0.0000
               GW ET     =           0.0000                 GW ET     =           0.0000
     SURFACE LEAKAGE     =           0.0000       SURFACE LEAKAGE     =           0.0000
           AG WELLS      =           0.0000             AG WELLS      =           0.0000

               TOTAL OUT =     2093228.8750                 TOTAL OUT =          12.5584

                IN - OUT =         -42.3750                  IN - OUT =      -4.8447E-04

     PERCENT DISCREPANCY =          -0.00         PERCENT DISCREPANCY =          -0.00






         TIME SUMMARY AT END OF TIME STEP    1 IN STRESS PERIOD    2
                    SECONDS     MINUTES      HOURS       DAYS        YEARS
                    -----------------------------------------------------------
   TIME STEP LENGTH  87667.      1461.1      24.352      1.0147     2.77799E-03
 STRESS PERIOD TIME  87667.      1461.1      24.352      1.0147     2.77799E-03
         TOTAL TIME 1.74067E+05  2901.1      48.352      2.0147     5.51584E-03
1
 
 SOLVING FOR HEAD 
                                                   Max.-Head-Change                         Max.-Flux-Residual
  Residual-Control   Outer-Iter.   Inner-Iter.     Column Row Layer    Maximum-Head-Change  Column Row Layer    Maximum-Flux-Residual          L2-NORM 
          0                 1           2             2   13     1       0.5599485135E-02       4   13    1         0.3174745166E+00      0.6799945182E+00
          0                 2           2             4   13     1      -0.5332830314E-03       4   13    1        -0.3142407070E-01      0.6665652851E-01
          0                 3           1             4   13     1       0.3579170672E-04       4   13    1         0.2168417202E-02      0.4540773980E-02

    ------------------------------------------------
       NWT REQUIRED            3 OUTER ITERATIONS 
       AND A TOTAL OF          5 INNER ITERATIONS.
    ------------------------------------------------

 NO OUTPUT CONTROL FOR STRESS PERIOD    2   TIME STEP    2
 
 SOLVING FOR HEAD 
                                                   Max.-Head-Change                         Max.-Flux-Residual
  Residual-Control   Outer-Iter.   Inner-Iter.     Column Row Layer    Maximum-Head-Change  Column Row Layer    Maximum-Flux-Residual          L2-NORM 
          0                 1           2             2   13     1       0.5185884406E-02       2   13    1         0.2917485494E+00      0.6422044993E+00
          0                 2           2             4   13     1      -0.4838831011E-03       4   13    1        -0.2849660932E-01      0.6300684429E-01
          0                 3           1             4   13     1       0.3247889756E-04       4   13    1         0.1966573949E-02      0.4297037243E-02

    ------------------------------------------------
       NWT REQUIRED            3 OUTER ITERATIONS 
       AND A TOTAL OF          5 INNER ITERATIONS.
    ------------------------------------------------

 NO OUTPUT CONTROL FOR STRESS PERIOD    2   TIME STEP    3
 
 SOLVING FOR HEAD 
                                                   Max.-Head-Change                         Max.-Flux-Residual
  Residual-Control   Outer-Iter.   Inner-Iter.     Column Row Layer    Maximum-Head-Change  Column Row Layer    Maximum-Flux-Residual          L2-NORM 
          0                 1           2             2   13     1       0.4803154029E-02       2   13    1         0.2701873240E+00      0.6081803872E+00
          0                 2           2             2   13     1      -0.4473179284E-03       2   13    1        -0.2586578846E-01      0.5972310199E-01
          0                 3           1             4   13     1       0.2948219716E-04       4   13    1         0.1784025593E-02      0.4078588667E-02

    ------------------------------------------------
       NWT REQUIRED            3 OUTER ITERATIONS 
       AND A TOTAL OF          5 INNER ITERATIONS.
    ------------------------------------------------

 NO OUTPUT CONTROL FOR STRESS PERIOD    2   TIME STEP    4
 
 SOLVING FOR HEAD 
                                                   Max.-Head-Change                         Max.-Flux-Residual
  Residual-Control   Outer-Iter.   Inner-Iter.     Column Row Layer    Maximum-Head-Change  Column Row Layer    Maximum-Flux-Residual          L2-NORM 
          0                 1           2             2   13     1       0.4449040972E-02       2   13    1         0.2502395760E+00      0.5775475204E+00
          0                 2           2             2   13     1      -0.4144801037E-03       2   13    1        -0.2396415219E-01      0.5676821826E-01
          0                 3           1             4   13     1       0.2676866390E-04       4   13    1         0.1618800686E-02      0.3881521732E-02

    ------------------------------------------------
       NWT REQUIRED            3 OUTER ITERATIONS 
       AND A TOTAL OF          5 INNER ITERATIONS.
    ------------------------------------------------

 NO OUTPUT CONTROL FOR STRESS PERIOD    2   TIME STEP    5
 
 SOLVING FOR HEAD 
                                                   Max.-Head-Change                         Max.-Flux-Residual
  Residual-Control   Outer-Iter.   Inner-Iter.     Column Row Layer    Maximum-Head-Change  Column Row Layer    Maximum-Flux-Residual          L2-NORM 
          0                 1           2             2   13     1       0.4121446218E-02       2   13    1         0.2317868444E+00      0.5499873162E+00
          0                 2           2             2   13     1      -0.3841207992E-03       2   13    1        -0.2220618270E-01      0.5411296304E-01
          0                 3           1             2    2     1       0.2466198281E-04       4   13    1         0.1471168053E-02      0.3706003663E-02

    ------------------------------------------------
       NWT REQUIRED            3 OUTER ITERATIONS 
       AND A TOTAL OF          5 INNER ITERATIONS.
    ------------------------------------------------

 NO OUTPUT CONTROL FOR STRESS PERIOD    2   TIME STEP    6
 
 SOLVING FOR HEAD 
                                                   Max.-Head-Change                         Max.-Flux-Residual
  Residual-Control   Outer-Iter.   Inner-Iter.     Column Row Layer    Maximum-Head-Change  Column Row Layer    Maximum-Flux-Residual          L2-NORM 
          0                 1           2             2   13     1       0.3818221148E-02       2   13    1         0.2147078483E+00      0.5251892090E+00
          0                 2           2             2    2     1      -0.3594198925E-03       2   13    1        -0.2057585153E-01      0.5172403295E-01
          0                 3           1             2    2     1       0.2447515648E-04       2   13    1         0.1355394319E-02      0.3547183221E-02

    ------------------------------------------------
       NWT REQUIRED            3 OUTER ITERATIONS 
       AND A TOTAL OF          5 INNER ITERATIONS.
    ------------------------------------------------

 NO OUTPUT CONTROL FOR STRESS PERIOD    2   TIME STEP    7
 
 SOLVING FOR HEAD 
                                                   Max.-Head-Change                         Max.-Flux-Residual
  Residual-Control   Outer-Iter.   Inner-Iter.     Column Row Layer    Maximum-Head-Change  Column Row Layer    Maximum-Flux-Residual          L2-NORM 
          0                 1           2             2    2     1       0.3667085789E-02       2   13    1         0.1989108451E+00      0.5028814641E+00
          0                 2           2             2    2     1      -0.3567080353E-03       2    2    1        -0.1917041004E-01      0.4957487384E-01
          0                 3           1             2    2     1       0.2429048908E-04       2    2    1         0.1341928919E-02      0.3403801657E-02

    ------------------------------------------------
       NWT REQUIRED            3 OUTER ITERATIONS 
       AND A TOTAL OF          5 INNER ITERATIONS.
    ------------------------------------------------

 NO OUTPUT CONTROL FOR STRESS PERIOD    2   TIME STEP    8
 
 SOLVING FOR HEAD 
                                                   Max.-Head-Change                         Max.-Flux-Residual
  Residual-Control   Outer-Iter.   Inner-Iter.     Column Row Layer    Maximum-Head-Change  Column Row Layer    Maximum-Flux-Residual          L2-NORM 
          0                 1           2             2    2     1       0.3639701008E-02       2    2    1         0.1902627778E+00      0.4828023298E+00
          0                 2           2             2    2     1      -0.3540442310E-03       2    2    1        -0.1902631586E-01      0.4764139681E-01
          0                 3           1             2    2     1       0.2410909393E-04       2    2    1         0.1331842321E-02      0.3275277796E-02

    ------------------------------------------------
       NWT REQUIRED            3 OUTER ITERATIONS 
       AND A TOTAL OF          5 INNER ITERATIONS.
    ------------------------------------------------

 NO OUTPUT CONTROL FOR STRESS PERIOD    2   TIME STEP    9
 
 SOLVING FOR HEAD 
                                                   Max.-Head-Change                         Max.-Flux-Residual
  Residual-Control   Outer-Iter.   Inner-Iter.     Column Row Layer    Maximum-Head-Change  Column Row Layer    Maximum-Flux-Residual          L2-NORM 
          0                 1           2             2    2     1       0.3612629094E-02       2    2    1         0.1888383547E+00      0.4647309080E+00
          0                 2           2             2    2     1      -0.3514108598E-03       2    2    1        -0.1888387273E-01      0.4590245170E-01
          0                 3           1             2    2     1       0.2392977109E-04       2    2    1         0.1321871310E-02      0.3160637835E-02

    ------------------------------------------------
       NWT REQUIRED            3 OUTER ITERATIONS 
       AND A TOTAL OF          5 INNER ITERATIONS.
    ------------------------------------------------

 NO OUTPUT CONTROL FOR STRESS PERIOD    2   TIME STEP   10
 
 SOLVING FOR HEAD 
                                                   Max.-Head-Change                         Max.-Flux-Residual
  Residual-Control   Outer-Iter.   Inner-Iter.     Column Row Layer    Maximum-Head-Change  Column Row Layer    Maximum-Flux-Residual          L2-NORM 
          0                 1           2             2    2     1       0.3585951204E-02       2    2    1         0.1874347047E+00      0.4484530803E+00
          0                 2           2             2    2     1      -0.3488158168E-03       2    2    1        -0.1874350697E-01      0.4433586465E-01
          0                 3           1             2    2     1       0.2375305852E-04       2    2    1         0.1312045692E-02      0.3055843380E-02

    ------------------------------------------------
       NWT REQUIRED            3 OUTER ITERATIONS 
       AND A TOTAL OF          5 INNER ITERATIONS.
    ------------------------------------------------

 NO OUTPUT CONTROL FOR STRESS PERIOD    2   TIME STEP   11
 
 SOLVING FOR HEAD 
                                                   Max.-Head-Change                         Max.-Flux-Residual
  Residual-Control   Outer-Iter.   Inner-Iter.     Column Row Layer    Maximum-Head-Change  Column Row Layer    Maximum-Flux-Residual          L2-NORM 
          0                 1           2             2    2     1       0.3559571552E-02       2    2    1         0.1860468156E+00      0.4337718088E+00
          0                 2           2             2    2     1      -0.3462497853E-03       2    2    1        -0.1860471735E-01      0.4292387309E-01
          0                 3           1             2    2     1       0.2357832146E-04       2    2    1         0.1302330426E-02      0.2962625798E-02

    ------------------------------------------------
       NWT REQUIRED            3 OUTER ITERATIONS 
       AND A TOTAL OF          5 INNER ITERATIONS.
    ------------------------------------------------

 NO OUTPUT CONTROL FOR STRESS PERIOD    2   TIME STEP   12
 
 SOLVING FOR HEAD 
                                                   Max.-Head-Change                         Max.-Flux-Residual
  Residual-Control   Outer-Iter.   Inner-Iter.     Column Row Layer    Maximum-Head-Change  Column Row Layer    Maximum-Flux-Residual          L2-NORM 
          0                 1           2             2    2     1       0.3533663503E-02       2    2    1         0.1846837273E+00      0.4205329170E+00
          0                 2           2             2    2     1      -0.3437296279E-03       2    2    1        -0.1846840780E-01      0.4164860976E-01
          0                 3           1             2    2     1       0.2340670825E-04       2    2    1         0.1292788776E-02      0.2877611772E-02

    ------------------------------------------------
       NWT REQUIRED            3 OUTER ITERATIONS 
       AND A TOTAL OF          5 INNER ITERATIONS.
    ------------------------------------------------

 NO OUTPUT CONTROL FOR STRESS PERIOD    2   TIME STEP   13
 
 SOLVING FOR HEAD 
                                                   Max.-Head-Change                         Max.-Flux-Residual
  Residual-Control   Outer-Iter.   Inner-Iter.     Column Row Layer    Maximum-Head-Change  Column Row Layer    Maximum-Flux-Residual          L2-NORM 
          0                 1           2             2    2     1       0.3508043674E-02       2    2    1         0.1833358706E+00      0.4085690191E+00
          0                 2           2             2    2     1      -0.3412375067E-03       2    2    1        -0.1833362145E-01      0.4049741654E-01
          0                 3           1             2    2     1       0.2323700428E-04       2    2    1         0.1283353723E-02      0.2801427160E-02

    ------------------------------------------------
       NWT REQUIRED            3 OUTER ITERATIONS 
       AND A TOTAL OF          5 INNER ITERATIONS.
    ------------------------------------------------

 NO OUTPUT CONTROL FOR STRESS PERIOD    2   TIME STEP   14
 
 SOLVING FOR HEAD 
                                                   Max.-Head-Change                         Max.-Flux-Residual
  Residual-Control   Outer-Iter.   Inner-Iter.     Column Row Layer    Maximum-Head-Change  Column Row Layer    Maximum-Flux-Residual          L2-NORM 
          0                 1           2             2    2     1       0.3482793688E-02       2    2    1         0.1820075095E+00      0.3977359959E+00
          0                 2           2             2    2     1      -0.3387813617E-03       2    2    1        -0.1820078465E-01      0.3945385013E-01
          0                 3           1             2    2     1       0.2306975036E-04       2    2    1         0.1274055180E-02      0.2732021932E-02

    ------------------------------------------------
       NWT REQUIRED            3 OUTER ITERATIONS 
       AND A TOTAL OF          5 INNER ITERATIONS.
    ------------------------------------------------

 NO OUTPUT CONTROL FOR STRESS PERIOD    2   TIME STEP   15
 
 SOLVING FOR HEAD 
                                                   Max.-Head-Change                         Max.-Flux-Residual
  Residual-Control   Outer-Iter.   Inner-Iter.     Column Row Layer    Maximum-Head-Change  Column Row Layer    Maximum-Flux-Residual          L2-NORM 
          0                 1           2             2    2     1       0.3457907880E-02       2    2    1         0.1806983244E+00      0.3879262877E+00
          0                 2           2             2    2     1      -0.3363606409E-03       2    2    1        -0.1806986548E-01      0.3850829212E-01
          0                 3           1             2    2     1       0.2290490790E-04       2    2    1         0.1264890818E-02      0.2668386228E-02

    ------------------------------------------------
       NWT REQUIRED            3 OUTER ITERATIONS 
       AND A TOTAL OF          5 INNER ITERATIONS.
    ------------------------------------------------

 NO OUTPUT CONTROL FOR STRESS PERIOD    2   TIME STEP   16
 
 SOLVING FOR HEAD 
                                                   Max.-Head-Change                         Max.-Flux-Residual
  Residual-Control   Outer-Iter.   Inner-Iter.     Column Row Layer    Maximum-Head-Change  Column Row Layer    Maximum-Flux-Residual          L2-NORM 
          0                 1           2             2    2     1       0.3433380672E-02       2    2    1         0.1794080215E+00      0.3790053448E+00
          0                 2           2             2    2     1      -0.3339748030E-03       2    2    1        -0.1794083456E-01      0.3764764780E-01
          0                 3           1             2    2     1       0.2274244116E-04       2    2    1         0.1255858658E-02      0.2612327691E-02

    ------------------------------------------------
       NWT REQUIRED            3 OUTER ITERATIONS 
       AND A TOTAL OF          5 INNER ITERATIONS.
    ------------------------------------------------

 NO OUTPUT CONTROL FOR STRESS PERIOD    2   TIME STEP   17
 
 SOLVING FOR HEAD 
                                                   Max.-Head-Change                         Max.-Flux-Residual
  Residual-Control   Outer-Iter.   Inner-Iter.     Column Row Layer    Maximum-Head-Change  Column Row Layer    Maximum-Flux-Residual          L2-NORM 
          0                 1           2             2    2     1       0.3409205831E-02       2    2    1         0.1781363116E+00      0.3708959238E+00
          0                 2           2             2    2     1      -0.3316232403E-03       2    2    1        -0.1781366293E-01      0.3686551279E-01
          0                 3           1             2    2     1       0.2258230874E-04       2    2    1         0.1246956648E-02      0.2559373117E-02

    ------------------------------------------------
       NWT REQUIRED            3 OUTER ITERATIONS 
       AND A TOTAL OF          5 INNER ITERATIONS.
    ------------------------------------------------

 NO OUTPUT CONTROL FOR STRESS PERIOD    2   TIME STEP   18
 
 SOLVING FOR HEAD 
                                                   Max.-Head-Change                         Max.-Flux-Residual
  Residual-Control   Outer-Iter.   Inner-Iter.     Column Row Layer    Maximum-Head-Change  Column Row Layer    Maximum-Flux-Residual          L2-NORM 
          0                 1           2             2    2     1       0.3385290862E-02       2    2    1         0.1768783193E+00      0.3634934776E+00
          0                 2           2             2    2     1      -0.3292969569E-03       2    2    1        -0.1768786309E-01      0.3614994633E-01
          0                 3           1             2    2     1       0.2242389740E-04       2    2    1         0.1238150655E-02      0.2512089789E-02

    ------------------------------------------------
       NWT REQUIRED            3 OUTER ITERATIONS 
       AND A TOTAL OF          5 INNER ITERATIONS.
    ------------------------------------------------

 NO OUTPUT CONTROL FOR STRESS PERIOD    2   TIME STEP   19
 
 SOLVING FOR HEAD 
                                                   Max.-Head-Change                         Max.-Flux-Residual
  Residual-Control   Outer-Iter.   Inner-Iter.     Column Row Layer    Maximum-Head-Change  Column Row Layer    Maximum-Flux-Residual          L2-NORM 
          0                 1           2             2    2     1       0.3361717890E-02       2    2    1         0.1756383533E+00      0.3567232374E+00
          0                 2           2             2    2     1      -0.3270039399E-03       2    2    1        -0.1756386587E-01      0.3549550141E-01
          0                 3           1             2    2     1       0.2226775150E-04       2    2    1         0.1229470848E-02      0.2468656893E-02

    ------------------------------------------------
       NWT REQUIRED            3 OUTER ITERATIONS 
       AND A TOTAL OF          5 INNER ITERATIONS.
    ------------------------------------------------

 NO OUTPUT CONTROL FOR STRESS PERIOD    2   TIME STEP   20
 
 SOLVING FOR HEAD 
                                                   Max.-Head-Change                         Max.-Flux-Residual
  Residual-Control   Outer-Iter.   Inner-Iter.     Column Row Layer    Maximum-Head-Change  Column Row Layer    Maximum-Flux-Residual          L2-NORM 
          0                 1           2             2    2     1       0.3338481753E-02       2    2    1         0.1744161195E+00      0.3505173767E+00
          0                 2           2             2    2     1      -0.3247436885E-03       2    2    1        -0.1744164192E-01      0.3489453705E-01
          0                 3           1             2    2     1       0.2211383624E-04       2    2    1         0.1220915152E-02      0.2428186917E-02

    ------------------------------------------------
       NWT REQUIRED            3 OUTER ITERATIONS 
       AND A TOTAL OF          5 INNER ITERATIONS.
    ------------------------------------------------

 NO OUTPUT CONTROL FOR STRESS PERIOD    2   TIME STEP   21
 
 SOLVING FOR HEAD 
                                                   Max.-Head-Change                         Max.-Flux-Residual
  Residual-Control   Outer-Iter.   Inner-Iter.     Column Row Layer    Maximum-Head-Change  Column Row Layer    Maximum-Flux-Residual          L2-NORM 
          0                 1           2             2    2     1       0.3315576565E-02       2    2    1         0.1732113502E+00      0.3448121673E+00
          0                 2           2             2    2     1      -0.3225156302E-03       2    2    1        -0.1732116441E-01      0.3434185142E-01
          0                 3           1             2    2     1       0.2196211495E-04       2    2    1         0.1212481770E-02      0.2391410482E-02

    ------------------------------------------------
       NWT REQUIRED            3 OUTER ITERATIONS 
       AND A TOTAL OF          5 INNER ITERATIONS.
    ------------------------------------------------

 NO OUTPUT CONTROL FOR STRESS PERIOD    2   TIME STEP   22
 
 SOLVING FOR HEAD 
                                                   Max.-Head-Change                         Max.-Flux-Residual
  Residual-Control   Outer-Iter.   Inner-Iter.     Column Row Layer    Maximum-Head-Change  Column Row Layer    Maximum-Flux-Residual          L2-NORM 
          0                 1           2             2    2     1       0.3292997315E-02       2    2    1         0.1720237402E+00      0.3395514357E+00
          0                 2           2             2    2     1      -0.3203192764E-03       2    2    1        -0.1720240288E-01      0.3383130430E-01
          0                 3           1             2    2     1       0.2181255093E-04       2    2    1         0.1204168445E-02      0.2356589915E-02

    ------------------------------------------------
       NWT REQUIRED            3 OUTER ITERATIONS 
       AND A TOTAL OF          5 INNER ITERATIONS.
    ------------------------------------------------

 NO OUTPUT CONTROL FOR STRESS PERIOD    2   TIME STEP   23
 
 SOLVING FOR HEAD 
                                                   Max.-Head-Change                         Max.-Flux-Residual
  Residual-Control   Outer-Iter.   Inner-Iter.     Column Row Layer    Maximum-Head-Change  Column Row Layer    Maximum-Flux-Residual          L2-NORM 
          0                 1           2             2    2     1       0.3270656481E-02       2    2    1         0.1708487113E+00      0.3346879897E+00
          0                 2           2             2    2     1      -0.3181461140E-03       2    2    1        -0.1708489944E-01      0.3335830768E-01
          0                 3           1             2    2     1       0.2166456671E-04       2    2    1         0.1195943205E-02      0.2325026302E-02

    ------------------------------------------------
       NWT REQUIRED            3 OUTER ITERATIONS 
       AND A TOTAL OF          5 INNER ITERATIONS.
    ------------------------------------------------

 NO OUTPUT CONTROL FOR STRESS PERIOD    2   TIME STEP   24
 
 SOLVING FOR HEAD 
                                                   Max.-Head-Change                         Max.-Flux-Residual
  Residual-Control   Outer-Iter.   Inner-Iter.     Column Row Layer    Maximum-Head-Change  Column Row Layer    Maximum-Flux-Residual          L2-NORM 
          0                 1           2             2    2     1       0.3248714730E-02       2    2    1         0.1696946811E+00      0.3301814118E+00
          0                 2           2             2    2     1      -0.3160117719E-03       2    2    1        -0.1696949589E-01      0.3291993999E-01
          0                 3           1             2    2     1       0.2151922589E-04       2    2    1         0.1187864950E-02      0.2295240678E-02

    ------------------------------------------------
       NWT REQUIRED            3 OUTER ITERATIONS 
       AND A TOTAL OF          5 INNER ITERATIONS.
    ------------------------------------------------

 NO OUTPUT CONTROL FOR STRESS PERIOD    2   TIME STEP   25
 
 SOLVING FOR HEAD 
                                                   Max.-Head-Change                         Max.-Flux-Residual
  Residual-Control   Outer-Iter.   Inner-Iter.     Column Row Layer    Maximum-Head-Change  Column Row Layer    Maximum-Flux-Residual          L2-NORM 
          0                 1           2             2    2     1       0.3226996200E-02       2    2    1         0.1685524713E+00      0.3259930173E+00
          0                 2           2             2    2     1      -0.3138991437E-03       2    2    1        -0.1685527439E-01      0.3251194433E-01
          0                 3           1             2    2     1       0.2137536404E-04       2    2    1         0.1179869468E-02      0.2267923572E-02

    ------------------------------------------------
       NWT REQUIRED            3 OUTER ITERATIONS 
       AND A TOTAL OF          5 INNER ITERATIONS.
    ------------------------------------------------

 NO OUTPUT CONTROL FOR STRESS PERIOD    2   TIME STEP   26
 
 SOLVING FOR HEAD 
                                                   Max.-Head-Change                         Max.-Flux-Residual
  Residual-Control   Outer-Iter.   Inner-Iter.     Column Row Layer    Maximum-Head-Change  Column Row Layer    Maximum-Flux-Residual          L2-NORM 
          0                 1           2             2    2     1       0.3205584433E-02       2    2    1         0.1674263883E+00      0.3220846077E+00
          0                 2           2             2    2     1      -0.3118163549E-03       2    2    1        -0.1674266559E-01      0.3213058254E-01
          0                 3           1             2    2     1       0.2123353379E-04       2    2    1         0.1171986842E-02      0.2242117281E-02

    ------------------------------------------------
       NWT REQUIRED            3 OUTER ITERATIONS 
       AND A TOTAL OF          5 INNER ITERATIONS.
    ------------------------------------------------

 NO OUTPUT CONTROL FOR STRESS PERIOD    2   TIME STEP   27
 
 SOLVING FOR HEAD 
                                                   Max.-Head-Change                         Max.-Flux-Residual
  Residual-Control   Outer-Iter.   Inner-Iter.     Column Row Layer    Maximum-Head-Change  Column Row Layer    Maximum-Flux-Residual          L2-NORM 
          0                 1           2             2    2     1       0.3184474025E-02       2    2    1         0.1663162106E+00      0.3184304815E+00
          0                 2           2             2    2     1      -0.3097628807E-03       2    2    1        -0.1663164734E-01      0.3177337357E-01
          0                 3           1             2    2     1       0.2109369989E-04       2    2    1         0.1164215575E-02      0.2217224628E-02

    ------------------------------------------------
       NWT REQUIRED            3 OUTER ITERATIONS 
       AND A TOTAL OF          5 INNER ITERATIONS.
    ------------------------------------------------

 NO OUTPUT CONTROL FOR STRESS PERIOD    2   TIME STEP   28
 
 SOLVING FOR HEAD 
                                                   Max.-Head-Change                         Max.-Flux-Residual
  Residual-Control   Outer-Iter.   Inner-Iter.     Column Row Layer    Maximum-Head-Change  Column Row Layer    Maximum-Flux-Residual          L2-NORM 
          0                 1           2             2    2     1       0.3163660535E-02       2    2    1         0.1652216580E+00      0.3150071140E+00
          0                 2           2             2    2     1      -0.3077382883E-03       2    2    1        -0.1652219160E-01      0.3143872281E-01
          0                 3           1             2    2     1       0.2095583274E-04       2    2    1         0.1156553659E-02      0.2195039549E-02

    ------------------------------------------------
       NWT REQUIRED            3 OUTER ITERATIONS 
       AND A TOTAL OF          5 INNER ITERATIONS.
    ------------------------------------------------

 NO OUTPUT CONTROL FOR STRESS PERIOD    2   TIME STEP   29
 
 SOLVING FOR HEAD 
                                                   Max.-Head-Change                         Max.-Flux-Residual
  Residual-Control   Outer-Iter.   Inner-Iter.     Column Row Layer    Maximum-Head-Change  Column Row Layer    Maximum-Flux-Residual          L2-NORM 
          0                 1           2             2    2     1       0.3143052426E-02       2    2    1         0.1641379469E+00      0.3117834489E+00
          0                 2           2             2    2     1      -0.3057336742E-03       2    2    1        -0.1641382002E-01      0.3112282237E-01
          0                 3           1             2    2     1       0.2081932575E-04       2    2    1         0.1148967647E-02      0.2173514920E-02

    ------------------------------------------------
       NWT REQUIRED            3 OUTER ITERATIONS 
       AND A TOTAL OF          5 INNER ITERATIONS.
    ------------------------------------------------

 NO OUTPUT CONTROL FOR STRESS PERIOD    2   TIME STEP   30



 STREAM LISTING     PERIOD      2   STEP       30

 LAYER ROW COL. STREAM  RCH.  FLOW INTO     FLOW TO   FLOW OUT OF   OVRLND.     DIRECT     STREAM       STREAM     STREAM     STREAM   STREAMBED  STREAMBED
                SEG.NO.  NO.  STRM. RCH.    AQUIFER    STRM. RCH.    RUNOFF     PRECIP       ET          HEAD       DEPTH      WIDTH   CONDCTNC.   GRADIENT

   1    1    1     1     1    2.2000E+01  2.3088E-01   2.1769E+01  0.000E+00  0.000E+00  0.000E+00  1.09418E+03  1.132E+00  1.242E+01  5.588E-02  1.377E+00
   1    2    2     1     2    2.1769E+01  3.5689E-01   2.1412E+01  0.000E+00  0.000E+00  0.000E+00  1.08919E+03  1.127E+00  1.235E+01  8.648E-02  1.376E+00
   1    3    3     1     3    2.1412E+01  3.0372E-01   2.1109E+01  0.000E+00  0.000E+00  0.000E+00  1.08354E+03  1.121E+00  1.228E+01  7.369E-02  1.374E+00
   1    3    4     1     4    2.1109E+01  2.7914E-01   2.0829E+01  0.000E+00  0.000E+00  0.000E+00  1.07852E+03  1.117E+00  1.222E+01  6.781E-02  1.372E+00
   1    4    5     2     1    1.8829E+01  3.1306E-01   1.8516E+01  0.000E+00  0.000E+00  0.000E+00  1.07295E+03  1.014E+00  1.200E+01  7.800E-02  1.338E+00
   1    5    6     2     2    1.8516E+01  2.4027E-01   1.8276E+01  0.000E+00  0.000E+00  0.000E+00  1.06751E+03  1.005E+00  1.200E+01  6.000E-02  1.335E+00
   1    6    6     2     3    1.8276E+01  2.3980E-01   1.8036E+01  0.000E+00  0.000E+00  0.000E+00  1.06279E+03  9.967E-01  1.200E+01  6.000E-02  1.332E+00
   1    7    6     2     4    1.8036E+01  2.3933E-01   1.7797E+01  0.000E+00  0.000E+00  0.000E+00  1.05806E+03  9.888E-01  1.200E+01  6.000E-02  1.330E+00
   1    8    6     2     5    1.7797E+01  2.3885E-01   1.7558E+01  0.000E+00  0.000E+00  0.000E+00  1.05334E+03  9.808E-01  1.200E+01  6.000E-02  1.327E+00
   1    3    5     3     1    2.0000E+00  2.8252E-01   1.7175E+00  0.000E+00  0.000E+00  0.000E+00  1.07555E+03  1.909E+00  9.636E+00  7.227E-02  1.955E+00
   1    3    6     3     2    1.7175E+00  2.4905E-01   1.4684E+00  0.000E+00  0.000E+00  0.000E+00  1.07264E+03  1.727E+00  8.909E+00  6.682E-02  1.864E+00
   1    3    7     3     3    1.4684E+00  1.9718E-01   1.2712E+00  0.000E+00  0.000E+00  0.000E+00  1.06987E+03  1.555E+00  8.218E+00  5.547E-02  1.777E+00
   1    4    8     3     4    1.2712E+00  2.2567E-01   1.0456E+00  0.000E+00  0.000E+00  0.000E+00  1.06682E+03  1.364E+00  7.455E+00  6.709E-02  1.682E+00
   1    5    8     3     5    1.0456E+00  1.5790E-01   8.8768E-01  0.000E+00  0.000E+00  0.000E+00  1.06362E+03  1.164E+00  6.655E+00  4.991E-02  1.582E+00
   1    6    8     3     6    8.8768E-01  5.5980E-02   8.3170E-01  0.000E+00  0.000E+00  0.000E+00  1.06158E+03  1.036E+00  6.145E+00  1.844E-02  1.518E+00
   1    5   10     4     1    1.0000E+01  9.0919E-02   9.9091E+00  0.000E+00  0.000E+00  0.000E+00  1.07836E+03  6.368E-01  1.000E+01  2.500E-02  1.212E+00
   1    5    9     4     2    9.9091E+00  1.8158E-01   9.7275E+00  0.000E+00  0.000E+00  0.000E+00  1.07154E+03  6.315E-01  1.000E+01  5.000E-02  1.211E+00
   1    6    8     4     3    9.7275E+00  1.2689E-01   9.6006E+00  0.000E+00  0.000E+00  0.000E+00  1.06381E+03  6.256E-01  1.000E+01  3.500E-02  1.209E+00
   1    6    8     5     1    1.0432E+01  2.2686E-01   1.0205E+01  0.000E+00  0.000E+00  0.000E+00  1.05868E+03  6.790E-01  1.542E+01  6.166E-02  1.226E+00
   1    7    7     5     2    1.0205E+01  2.7894E-01   9.9265E+00  0.000E+00  0.000E+00  0.000E+00  1.05417E+03  6.732E-01  1.519E+01  7.594E-02  1.224E+00
   1    8    7     5     3    9.9265E+00  1.9221E-01   9.7343E+00  0.000E+00  0.000E+00  0.000E+00  1.04992E+03  6.676E-01  1.497E+01  5.241E-02  1.223E+00
   1    8    6     5     4    9.7343E+00  1.3577E-01   9.5985E+00  0.000E+00  0.000E+00  0.000E+00  1.04691E+03  6.637E-01  1.482E+01  3.706E-02  1.221E+00
   1    9    6     6     1    2.7157E+01  2.5677E-01   2.6900E+01  0.000E+00  0.000E+00  0.000E+00  1.04401E+03  1.280E+00  1.200E+01  6.000E-02  1.427E+00
   1   10    7     6     2    2.6900E+01  2.5634E-01   2.6644E+01  0.000E+00  0.000E+00  0.000E+00  1.03945E+03  1.272E+00  1.200E+01  6.000E-02  1.424E+00
   1   11    7     6     3    2.6644E+01  2.5590E-01   2.6388E+01  0.000E+00  0.000E+00  0.000E+00  1.03490E+03  1.265E+00  1.200E+01  6.000E-02  1.422E+00
   1   12    7     6     4    2.6388E+01  2.5546E-01   2.6132E+01  0.000E+00  0.000E+00  0.000E+00  1.03035E+03  1.258E+00  1.200E+01  6.000E-02  1.419E+00
   1   13    7     6     5    2.6132E+01  1.0938E-03   2.6131E+01  0.000E+00  0.000E+00  0.000E+00  1.02716E+03  1.254E+00  1.200E+01  2.400E-02  1.519E-02
   1   14    9     7     1    1.5000E+02  1.3306E+00   1.4867E+02  0.000E+00  0.000E+00  0.000E+00  1.03987E+03  2.288E+00  5.529E+01  5.593E-01  7.930E-01
   1   13    8     7     2    1.4867E+02  1.8228E+00   1.4685E+02  0.000E+00  0.000E+00  0.000E+00  1.03478E+03  2.279E+00  5.526E+01  6.148E-01  9.883E-01
   1   13    7     7     3    1.4685E+02  1.4367E+00   1.4541E+02  0.000E+00  0.000E+00  0.000E+00  1.02969E+03  2.271E+00  5.522E+01  5.585E-01  8.575E-01
   1   13    6     8     1    1.7154E+02  8.8336E-01   1.7066E+02  0.000E+00  0.000E+00  0.000E+00  1.02483E+03  2.959E+00  4.291E+01  4.373E-01  6.734E-01
   1   13    5     8     2    1.7066E+02  1.2909E-01   1.7053E+02  0.000E+00  0.000E+00  0.000E+00  1.01858E+03  2.956E+00  4.286E+01  4.368E-01  9.852E-02
   1   13    4     8     3    1.7053E+02 -2.6157E+00   1.7314E+02  0.000E+00  0.000E+00  0.000E+00  1.01234E+03  2.964E+00  4.298E+01  4.380E+00 -1.991E-01
   1   13    3     8     4    1.7314E+02 -3.7119E+00   1.7686E+02  0.000E+00  0.000E+00  0.000E+00  1.00611E+03  2.984E+00  4.327E+01  4.410E+00 -2.806E-01
   1   13    2     8     5    1.7686E+02 -2.5514E+00   1.7941E+02  0.000E+00  0.000E+00  0.000E+00  9.99879E+02  3.004E+00  4.356E+01  4.439E+00 -1.916E-01
   1   13    1     8     6    1.7941E+02 -1.9322E+00   1.8134E+02  0.000E+00  0.000E+00  0.000E+00  9.94893E+02  3.019E+00  4.377E+01  2.676E+00 -2.407E-01





UNSATURATED ZONE PACKAGE VOLUMETRIC BUDGET FOR  TIME STEP    30 STRESS PERIOD    2
  ------------------------------------------------------------------------------



     CUMULATIVE VOLUMES      L**3       RATES FOR THIS TIME STEP      L**3/T
     ------------------                 ------------------------

           IN:                                      IN:
           ---                                      ---
        INFILTRATION =     2302148.8727          INFILTRATION =           0.8475

          OUT:                                     OUT:
          ----                                     ----
              UZF ET =     1972459.2683                UZF ET =           0.7500
        UZF RECHARGE =       73224.0000          UZF RECHARGE =       0.0000E+00

            IN - OUT =      256465.6044              IN - OUT =       9.7500E-02

          STORAGE:                                 STORAGE:
          --------                                 --------
      STORAGE CHANGE =      256465.6278        STORAGE CHANGE =       9.7500E-02

 PERCENT DISCREPANCY IS DIFFERENCE BETWEEN IN-OUT MINUS CHANGE IN STORAGE
 DIVIDED BY THE AVERAGE OF IN AND OUT TIMES 100

 PERCENT DISCREPANCY =          -0.00     PERCENT DISCREPANCY =           0.00






1
  VOLUMETRIC BUDGET FOR AGRICULTURAL FIELDS AT  END OF TIME STEP   30, STRESS PERIOD   2
  ------------------------------------------------------------------------------

     CUMULATIVE VOLUMES      L**3       RATES FOR THIS TIME STEP      L**3/T
     ------------------                 ------------------------

           IN:                                      IN:
           ---                                      ---
               AG WELLS  =           0.0000                 AG WELLS  =           0.0000
      DIVERSION SEGMENTS =           0.0000        DIVERSION SEGMENTS =           0.0000
           GW IRRIGATION =           0.0000             GW IRRIGATION =           0.0000
           SW IRRIGATION =           0.0000             SW IRRIGATION =           0.0000
        SYSTEM LOSSES GW =           0.0000          SYSTEM LOSSES GW =           0.0000
        SYSTEM LOSSES SW =           0.0000          SYSTEM LOSSES SW =           0.0000

                TOTAL IN =           0.0000                  TOTAL IN =           0.0000

          OUT:                                     OUT:
          ----                                     ----
               AG WELLS  =           0.0000                 AG WELLS  =           0.0000
      DIVERSION SEGMENTS =           0.0000        DIVERSION SEGMENTS =           0.0000
           GW IRRIGATION =           0.0000             GW IRRIGATION =           0.0000
           SW IRRIGATION =           0.0000             SW IRRIGATION =           0.0000
        SYSTEM LOSSES GW =           0.0000          SYSTEM LOSSES GW =           0.0000
        SYSTEM LOSSES SW =           0.0000          SYSTEM LOSSES SW =           0.0000

               TOTAL OUT =           0.0000                 TOTAL OUT =           0.0000

                IN - OUT =           0.0000                  IN - OUT =           0.0000

     PERCENT DISCREPANCY =           0.00         PERCENT DISCREPANCY =           0.00



1
  VOLUMETRIC BUDGET FOR ENTIRE MODEL AT END OF TIME STEP   30, STRESS PERIOD   2
  ------------------------------------------------------------------------------

     CUMULATIVE VOLUMES      L**3       RATES FOR THIS TIME STEP      L**3/T
     ------------------                 ------------------------

           IN:                                      IN:
           ---                                      ---
             STORAGE     =     1687680.6250               STORAGE     =           0.5792
       CONSTANT HEAD     =           0.0000         CONSTANT HEAD     =           0.0000
     HEAD DEP BOUNDS     =      775205.3125       HEAD DEP BOUNDS     =           0.2854
      STREAM LEAKAGE     =    31116962.0000        STREAM LEAKAGE     =          11.4714
        UZF RECHARGE     =       73223.9531          UZF RECHARGE     =           0.0000
               GW ET     =           0.0000                 GW ET     =           0.0000
     SURFACE LEAKAGE     =           0.0000       SURFACE LEAKAGE     =           0.0000
           AG WELLS      =           0.0000             AG WELLS      =           0.0000

                TOTAL IN =    33653072.0000                  TOTAL IN =          12.3360

          OUT:                                     OUT:
          ----                                     ----
             STORAGE     =     4220740.5000               STORAGE     =           1.2356
       CONSTANT HEAD     =           0.0000         CONSTANT HEAD     =           0.0000
     HEAD DEP BOUNDS     =      783850.8125       HEAD DEP BOUNDS     =           0.2894
      STREAM LEAKAGE     =    28649202.0000        STREAM LEAKAGE     =          10.8112
        UZF RECHARGE     =           0.0000          UZF RECHARGE     =           0.0000
               GW ET     =           0.0000                 GW ET     =           0.0000
     SURFACE LEAKAGE     =           0.0000       SURFACE LEAKAGE     =           0.0000
           AG WELLS      =           0.0000             AG WELLS      =           0.0000

               TOTAL OUT =    33653792.0000                 TOTAL OUT =          12.3362

                IN - OUT =        -720.0000                  IN - OUT =      -1.8311E-04

     PERCENT DISCREPANCY =          -0.00         PERCENT DISCREPANCY =          -0.00






         TIME SUMMARY AT END OF TIME STEP   30 IN STRESS PERIOD    2
                    SECONDS     MINUTES      HOURS       DAYS        YEARS
                    -----------------------------------------------------------
   TIME STEP LENGTH  87667.      1461.1      24.352      1.0147     2.77799E-03
 STRESS PERIOD TIME 2.63000E+06  43833.      730.56      30.440     8.33397E-02
         TOTAL TIME 2.71640E+06  45273.      754.56      31.440     8.60775E-02
1
1
                            STRESS PERIOD NO.    3, LENGTH =   2630000.    
                            -----------------------------------------------

                              NUMBER OF TIME STEPS =    30

                               MULTIPLIER FOR DELT =     1.000

                            INITIAL TIME STEP SIZE =   87666.66    

 REUSING NON-PARAMETER GHB CELLS FROM LAST STRESS PERIOD

      2 GHB CELLS

 REUSING STREAM SEGMENT DATA FROM LAST STRESS PERIOD



            AREAL INFILTRATION RATE
 READING ON UNIT   19 WITH FORMAT: (FREE)              

            1           2           3           4           5           6           7           8           9          10
 ........................................................................................................................
   1   1.0000E-10  2.0000E-10   0.000       0.000       0.000       0.000       0.000       0.000       0.000       0.000    
   2   2.0000E-10  1.0000E-10  2.0000E-10   0.000       0.000      8.0000E-10  8.0000E-10  5.0000E-10   0.000       0.000    
   3    0.000      5.0000E-10  1.0000E-10  1.0000E-10  8.0000E-10  8.0000E-10  5.0000E-10  5.0000E-10   0.000       0.000    
   4   8.0000E-10  5.0000E-10  1.0000E-10  1.0000E-10  1.0000E-10  1.0000E-10  1.0000E-10  1.0000E-10  2.0000E-10   0.000    
   5   8.0000E-10  5.0000E-10  1.0000E-10  1.0000E-10  1.0000E-10  1.0000E-10  1.0000E-10  1.0000E-10  1.0000E-10  1.0000E-10
   6   8.0000E-10  5.0000E-10  5.0000E-10  2.0000E-10  2.0000E-10  1.0000E-10  1.0000E-10  1.0000E-10  1.0000E-10  5.0000E-10
   7   8.0000E-10  5.0000E-10  5.0000E-10  2.0000E-10  2.0000E-10  1.0000E-10  1.0000E-10  2.0000E-10  2.0000E-10   0.000    
   8    0.000      5.0000E-10  5.0000E-10  2.0000E-10  2.0000E-10  1.0000E-10  1.0000E-10  2.0000E-10  5.0000E-10   0.000    
   9    0.000      5.0000E-10  5.0000E-10  2.0000E-10  2.0000E-10  1.0000E-10  1.0000E-10  2.0000E-10  5.0000E-10   0.000    
  10    0.000      5.0000E-10  5.0000E-10  2.0000E-10  2.0000E-10  1.0000E-10  1.0000E-10  2.0000E-10  5.0000E-10  8.0000E-10
  11    0.000      1.0000E-10  1.0000E-10  1.0000E-10  1.0000E-10  1.0000E-10  1.0000E-10  2.0000E-10  5.0000E-10   0.000    
  12   1.0000E-10  1.0000E-10  1.0000E-10  1.0000E-10  1.0000E-10  1.0000E-10  1.0000E-10  1.0000E-10  2.0000E-10   0.000    
  13   1.0000E-10  1.0000E-10  2.0000E-10  2.0000E-10  2.0000E-10  2.0000E-10  2.0000E-10  1.0000E-10  1.0000E-10   0.000    
  14    0.000      2.0000E-10  5.0000E-10  5.0000E-10  5.0000E-10  5.0000E-10  5.0000E-10  2.0000E-10  1.0000E-10   0.000    
  15    0.000       0.000      8.0000E-10  8.0000E-10  8.0000E-10  8.0000E-10   0.000       0.000       0.000       0.000    

                  ET RATE =  5.000000E-10

 USING ET EXTINCTION DEPTH FROM PREVIOUS STRESS PERIOD. CURRENT PERIOD IS:       3

 USING EXTINCTION WATER CONTENT FROM PREVIOUS STRESS PERIOD. CURRENT PERIOD IS:       3

 USING AIR ENTRY PRESSURE FROM PREVIOUS STRESS PERIOD. CURRENT PERIOD IS:       3

 USING ROOT PRESSURE HEAD FROM PREVIOUS STRESS PERIOD. CURRENT PERIOD IS:       3

 USING ROOT ACTIVITY FROM PREVIOUS STRESS PERIOD. CURRENT PERIOD IS:       3

 PROCESSING AG STRESS PERIOD DATA

 READING AG STRESS PERIOD DATA

 READING IRRIGATION WELL

 END PROCESSING AG STRESS PERIOD DATA OPTIONS
 
 SOLVING FOR HEAD 
                                                   Max.-Head-Change                         Max.-Flux-Residual
  Residual-Control   Outer-Iter.   Inner-Iter.     Column Row Layer    Maximum-Head-Change  Column Row Layer    Maximum-Flux-Residual          L2-NORM 
          0                 1           2             2    2     1       0.4445665168E-02       2   13    1         0.2434077885E+00      0.6122456567E+00
          0                 2           2             2    2     1      -0.4324427866E-03       4   13    1        -0.2398219309E-01      0.6028203064E-01
          0                 3           1             2    2     1       0.2944774286E-04       4   13    1         0.1653808416E-02      0.4133544402E-02

    ------------------------------------------------
       NWT REQUIRED            3 OUTER ITERATIONS 
       AND A TOTAL OF          5 INNER ITERATIONS.
    ------------------------------------------------

 NO OUTPUT CONTROL FOR STRESS PERIOD    3   TIME STEP    1
 
 SOLVING FOR HEAD 
                                                   Max.-Head-Change                         Max.-Flux-Residual
  Residual-Control   Outer-Iter.   Inner-Iter.     Column Row Layer    Maximum-Head-Change  Column Row Layer    Maximum-Flux-Residual          L2-NORM 
          0                 1           2             2   13     1       0.7704228482E-02       4   13    1         0.4384289893E+00      0.9459694615E+00
          0                 2           2             4   13     1      -0.7354772568E-03       4   13    1        -0.4338087861E-01      0.9263039001E-01
          0                 3           1             4   13     1       0.4933218303E-04       4   13    1         0.2991614172E-02      0.6300865252E-02

    ------------------------------------------------
       NWT REQUIRED            3 OUTER ITERATIONS 
       AND A TOTAL OF          5 INNER ITERATIONS.
    ------------------------------------------------

 NO OUTPUT CONTROL FOR STRESS PERIOD    3   TIME STEP    2
 
 SOLVING FOR HEAD 
                                                   Max.-Head-Change                         Max.-Flux-Residual
  Residual-Control   Outer-Iter.   Inner-Iter.     Column Row Layer    Maximum-Head-Change  Column Row Layer    Maximum-Flux-Residual          L2-NORM 
          0                 1           2             2   13     1       0.7121127234E-02       2   13    1         0.4014741535E+00      0.8938692328E+00
          0                 2           2             4   13     1      -0.6668062820E-03       4   13    1        -0.3930286909E-01      0.8761599149E-01
          0                 3           1             4   13     1       0.4473894970E-04       4   13    1         0.2711165901E-02      0.5968549507E-02

    ------------------------------------------------
       NWT REQUIRED            3 OUTER ITERATIONS 
       AND A TOTAL OF          5 INNER ITERATIONS.
    ------------------------------------------------

 NO OUTPUT CONTROL FOR STRESS PERIOD    3   TIME STEP    3
 
 SOLVING FOR HEAD 
                                                   Max.-Head-Change                         Max.-Flux-Residual
  Residual-Control   Outer-Iter.   Inner-Iter.     Column Row Layer    Maximum-Head-Change  Column Row Layer    Maximum-Flux-Residual          L2-NORM 
          0                 1           2             2   13     1       0.6582769729E-02       2   13    1         0.3710761315E+00      0.8472028472E+00
          0                 2           2             2   13     1      -0.6119549928E-03       4   13    1        -0.3563299834E-01      0.8313001593E-01
          0                 3           1             4   13     1       0.4058759603E-04       4   13    1         0.2457765077E-02      0.5671479927E-02

    ------------------------------------------------
       NWT REQUIRED            3 OUTER ITERATIONS 
       AND A TOTAL OF          5 INNER ITERATIONS.
    ------------------------------------------------

 NO OUTPUT CONTROL FOR STRESS PERIOD    3   TIME STEP    4
 
 SOLVING FOR HEAD 
                                                   Max.-Head-Change                         Max.-Flux-Residual
  Residual-Control   Outer-Iter.   Inner-Iter.     Column Row Layer    Maximum-Head-Change  Column Row Layer    Maximum-Flux-Residual          L2-NORM 
          0                 1           2             2   13     1       0.6085651864E-02       2   13    1         0.3430083489E+00      0.8054120520E+00
          0                 2           2             2   13     1      -0.5659524633E-03       2   13    1        -0.3278948288E-01      0.7911499148E-01
          0                 3           1             4   13     1       0.3682391790E-04       4   13    1         0.2228115018E-02      0.5405163780E-02

    ------------------------------------------------
       NWT REQUIRED            3 OUTER ITERATIONS 
       AND A TOTAL OF          5 INNER ITERATIONS.
    ------------------------------------------------

 NO OUTPUT CONTROL FOR STRESS PERIOD    3   TIME STEP    5
 
 SOLVING FOR HEAD 
                                                   Max.-Head-Change                         Max.-Flux-Residual
  Residual-Control   Outer-Iter.   Inner-Iter.     Column Row Layer    Maximum-Head-Change  Column Row Layer    Maximum-Flux-Residual          L2-NORM 
          0                 1           2             2   13     1       0.5626677921E-02       2   13    1         0.3170959907E+00      0.7680204251E+00
          0                 2           2             2   13     1      -0.5234555535E-03       2   13    1        -0.3032316165E-01      0.7552067469E-01
          0                 3           1             2    2     1       0.3527219965E-04       4   13    1         0.2025021868E-02      0.5168676099E-02

    ------------------------------------------------
       NWT REQUIRED            3 OUTER ITERATIONS 
       AND A TOTAL OF          5 INNER ITERATIONS.
    ------------------------------------------------

 NO OUTPUT CONTROL FOR STRESS PERIOD    3   TIME STEP    6
 
 SOLVING FOR HEAD 
                                                   Max.-Head-Change                         Max.-Flux-Residual
  Residual-Control   Outer-Iter.   Inner-Iter.     Column Row Layer    Maximum-Head-Change  Column Row Layer    Maximum-Flux-Residual          L2-NORM 
          0                 1           2             2    2     1       0.5289563717E-02       2   13    1         0.2931748824E+00      0.7345793756E+00
          0                 2           2             2    2     1      -0.5145314201E-03       2   13    1        -0.2804363929E-01      0.7231634392E-01
          0                 3           1             2    2     1       0.3503767112E-04       2    2    1         0.1933947680E-02      0.4957786103E-02

    ------------------------------------------------
       NWT REQUIRED            3 OUTER ITERATIONS 
       AND A TOTAL OF          5 INNER ITERATIONS.
    ------------------------------------------------

 NO OUTPUT CONTROL FOR STRESS PERIOD    3   TIME STEP    7
 
 SOLVING FOR HEAD 
                                                   Max.-Head-Change                         Max.-Flux-Residual
  Residual-Control   Outer-Iter.   Inner-Iter.     Column Row Layer    Maximum-Head-Change  Column Row Layer    Maximum-Flux-Residual          L2-NORM 
          0                 1           2             2    2     1       0.5254572817E-02       2    2    1         0.2744371631E+00      0.7046590867E+00
          0                 2           2             2    2     1      -0.5111277395E-03       2    2    1        -0.2744378862E-01      0.6944667644E-01
          0                 3           1             2    2     1       0.3480589343E-04       2    2    1         0.1921065339E-02      0.4767238732E-02

    ------------------------------------------------
       NWT REQUIRED            3 OUTER ITERATIONS 
       AND A TOTAL OF          5 INNER ITERATIONS.
    ------------------------------------------------

 NO OUTPUT CONTROL FOR STRESS PERIOD    3   TIME STEP    8
 
 SOLVING FOR HEAD 
                                                   Max.-Head-Change                         Max.-Flux-Residual
  Residual-Control   Outer-Iter.   Inner-Iter.     Column Row Layer    Maximum-Head-Change  Column Row Layer    Maximum-Flux-Residual          L2-NORM 
          0                 1           2             2    2     1       0.5220076866E-02       2    2    1         0.2726229246E+00      0.6779020571E+00
          0                 2           2             2    2     1      -0.5077722038E-03       2    2    1        -0.2726236342E-01      0.6688010131E-01
          0                 3           1             2    2     1       0.3457739438E-04       2    2    1         0.1908365592E-02      0.4597003011E-02

    ------------------------------------------------
       NWT REQUIRED            3 OUTER ITERATIONS 
       AND A TOTAL OF          5 INNER ITERATIONS.
    ------------------------------------------------

 NO OUTPUT CONTROL FOR STRESS PERIOD    3   TIME STEP    9
 
 SOLVING FOR HEAD 
                                                   Max.-Head-Change                         Max.-Flux-Residual
  Residual-Control   Outer-Iter.   Inner-Iter.     Column Row Layer    Maximum-Head-Change  Column Row Layer    Maximum-Flux-Residual          L2-NORM 
          0                 1           2             2    2     1       0.5186067833E-02       2    2    1         0.2708343486E+00      0.6539758233E+00
          0                 2           2             2    2     1      -0.5044640328E-03       2    2    1        -0.2708350454E-01      0.6459025465E-01
          0                 3           1             2    2     1       0.3435212000E-04       2    2    1         0.1895845473E-02      0.4446636434E-02

    ------------------------------------------------
       NWT REQUIRED            3 OUTER ITERATIONS 
       AND A TOTAL OF          5 INNER ITERATIONS.
    ------------------------------------------------

 NO OUTPUT CONTROL FOR STRESS PERIOD    3   TIME STEP   10
 
 SOLVING FOR HEAD 
                                                   Max.-Head-Change                         Max.-Flux-Residual
  Residual-Control   Outer-Iter.   Inner-Iter.     Column Row Layer    Maximum-Head-Change  Column Row Layer    Maximum-Flux-Residual          L2-NORM 
          0                 1           2             2    2     1       0.5152538631E-02       2    2    1         0.2690710188E+00      0.6325565660E+00
          0                 2           2             2    2     1      -0.5012025364E-03       2    2    1        -0.2690717027E-01      0.6253819138E-01
          0                 3           1             2    2     1       0.3413002462E-04       2    2    1         0.1883502089E-02      0.4311334424E-02

    ------------------------------------------------
       NWT REQUIRED            3 OUTER ITERATIONS 
       AND A TOTAL OF          5 INNER ITERATIONS.
    ------------------------------------------------

 NO OUTPUT CONTROL FOR STRESS PERIOD    3   TIME STEP   11
 
 SOLVING FOR HEAD 
                                                   Max.-Head-Change                         Max.-Flux-Residual
  Residual-Control   Outer-Iter.   Inner-Iter.     Column Row Layer    Maximum-Head-Change  Column Row Layer    Maximum-Flux-Residual          L2-NORM 
          0                 1           2             2    2     1       0.5119394344E-02       2    2    1         0.2673280123E+00      0.6133688537E+00
          0                 2           2             2    2     1      -0.4979784828E-03       2    2    1        -0.2673286842E-01      0.6070978094E-01
          0                 3           1             2    2     1       0.3391047868E-04       2    2    1         0.1871300965E-02      0.4190229289E-02

    ------------------------------------------------
       NWT REQUIRED            3 OUTER ITERATIONS 
       AND A TOTAL OF          5 INNER ITERATIONS.
    ------------------------------------------------

 NO OUTPUT CONTROL FOR STRESS PERIOD    3   TIME STEP   12
 
 SOLVING FOR HEAD 
                                                   Max.-Head-Change                         Max.-Flux-Residual
  Residual-Control   Outer-Iter.   Inner-Iter.     Column Row Layer    Maximum-Head-Change  Column Row Layer    Maximum-Flux-Residual          L2-NORM 
          0                 1           2             2    2     1       0.5086715246E-02       2    2    1         0.2656095184E+00      0.5961581105E+00
          0                 2           2             2    2     1      -0.4947996786E-03       2    2    1        -0.2656101780E-01      0.5905064292E-01
          0                 3           1             2    2     1       0.3369401400E-04       2    2    1         0.1859271408E-02      0.4082409705E-02

    ------------------------------------------------
       NWT REQUIRED            3 OUTER ITERATIONS 
       AND A TOTAL OF          5 INNER ITERATIONS.
    ------------------------------------------------

 NO OUTPUT CONTROL FOR STRESS PERIOD    3   TIME STEP   13
 
 SOLVING FOR HEAD 
                                                   Max.-Head-Change                         Max.-Flux-Residual
  Residual-Control   Outer-Iter.   Inner-Iter.     Column Row Layer    Maximum-Head-Change  Column Row Layer    Maximum-Flux-Residual          L2-NORM 
          0                 1           2             2    2     1       0.5054493826E-02       2    2    1         0.2639151442E+00      0.5807037900E+00
          0                 2           2             2    2     1      -0.4916653956E-03       2    2    1        -0.2639157920E-01      0.5757019161E-01
          0                 3           1             2    2     1       0.3348058109E-04       2    2    1         0.1847410733E-02      0.3985979683E-02

    ------------------------------------------------
       NWT REQUIRED            3 OUTER ITERATIONS 
       AND A TOTAL OF          5 INNER ITERATIONS.
    ------------------------------------------------

 NO OUTPUT CONTROL FOR STRESS PERIOD    3   TIME STEP   14
 
 SOLVING FOR HEAD 
                                                   Max.-Head-Change                         Max.-Flux-Residual
  Residual-Control   Outer-Iter.   Inner-Iter.     Column Row Layer    Maximum-Head-Change  Column Row Layer    Maximum-Flux-Residual          L2-NORM 
          0                 1           2             2    2     1       0.5022723105E-02       2    2    1         0.2622445000E+00      0.5668087471E+00
          0                 2           2             2    2     1      -0.4885749531E-03       2    2    1        -0.2622451362E-01      0.5627803117E-01
          0                 3           1             2    2     1       0.3327013382E-04       2    2    1         0.1835716143E-02      0.3898527241E-02

    ------------------------------------------------
       NWT REQUIRED            3 OUTER ITERATIONS 
       AND A TOTAL OF          5 INNER ITERATIONS.
    ------------------------------------------------

 NO OUTPUT CONTROL FOR STRESS PERIOD    3   TIME STEP   15
 
 SOLVING FOR HEAD 
                                                   Max.-Head-Change                         Max.-Flux-Residual
  Residual-Control   Outer-Iter.   Inner-Iter.     Column Row Layer    Maximum-Head-Change  Column Row Layer    Maximum-Flux-Residual          L2-NORM 
          0                 1           2             2    2     1       0.4991308671E-02       2    2    1         0.2605926681E+00      0.5542621598E+00
          0                 2           2             2    2     1      -0.4855191685E-03       2    2    1        -0.2605932931E-01      0.5503402573E-01
          0                 3           1             2    2     1       0.3306204595E-04       2    2    1         0.1824153239E-02      0.3816222713E-02

    ------------------------------------------------
       NWT REQUIRED            3 OUTER ITERATIONS 
       AND A TOTAL OF          5 INNER ITERATIONS.
    ------------------------------------------------

 NO OUTPUT CONTROL FOR STRESS PERIOD    3   TIME STEP   16
 
 SOLVING FOR HEAD 
                                                   Max.-Head-Change                         Max.-Flux-Residual
  Residual-Control   Outer-Iter.   Inner-Iter.     Column Row Layer    Maximum-Head-Change  Column Row Layer    Maximum-Flux-Residual          L2-NORM 
          0                 1           2             2    2     1       0.4960331271E-02       2    2    1         0.2589638650E+00      0.5429237287E+00
          0                 2           2             2    2     1      -0.4825058959E-03       2    2    1        -0.2589644792E-01      0.5394667978E-01
          0                 3           1             2    2     1       0.3285685377E-04       2    2    1         0.1812751558E-02      0.3744539295E-02

    ------------------------------------------------
       NWT REQUIRED            3 OUTER ITERATIONS 
       AND A TOTAL OF          5 INNER ITERATIONS.
    ------------------------------------------------

 NO OUTPUT CONTROL FOR STRESS PERIOD    3   TIME STEP   17
 
 SOLVING FOR HEAD 
                                                   Max.-Head-Change                         Max.-Flux-Residual
  Residual-Control   Outer-Iter.   Inner-Iter.     Column Row Layer    Maximum-Head-Change  Column Row Layer    Maximum-Flux-Residual          L2-NORM 
          0                 1           2             2    2     1       0.4929772141E-02       2    2    1         0.2573570875E+00      0.5326596317E+00
          0                 2           2             2    2     1      -0.4795333093E-03       2    2    1        -0.2573576909E-01      0.5295846477E-01
          0                 3           1             2    2     1       0.3265443162E-04       2    2    1         0.1801504035E-02      0.3678816758E-02

    ------------------------------------------------
       NWT REQUIRED            3 OUTER ITERATIONS 
       AND A TOTAL OF          5 INNER ITERATIONS.
    ------------------------------------------------

 NO OUTPUT CONTROL FOR STRESS PERIOD    3   TIME STEP   18
 
 SOLVING FOR HEAD 
                                                   Max.-Head-Change                         Max.-Flux-Residual
  Residual-Control   Outer-Iter.   Inner-Iter.     Column Row Layer    Maximum-Head-Change  Column Row Layer    Maximum-Flux-Residual          L2-NORM 
          0                 1           2             2    2     1       0.4899649117E-02       2    2    1         0.2557732654E+00      0.5233498770E+00
          0                 2           2             2    2     1      -0.4766031447E-03       2    2    1        -0.2557738583E-01      0.5206240272E-01
          0                 3           1             2    2     1       0.3245489854E-04       2    2    1         0.1790417213E-02      0.3619080227E-02

    ------------------------------------------------
       NWT REQUIRED            3 OUTER ITERATIONS 
       AND A TOTAL OF          5 INNER ITERATIONS.
    ------------------------------------------------

 NO OUTPUT CONTROL FOR STRESS PERIOD    3   TIME STEP   19
 
 SOLVING FOR HEAD 
                                                   Max.-Head-Change                         Max.-Flux-Residual
  Residual-Control   Outer-Iter.   Inner-Iter.     Column Row Layer    Maximum-Head-Change  Column Row Layer    Maximum-Flux-Residual          L2-NORM 
          0                 1           2             2    2     1       0.4869943561E-02       2    2    1         0.2542114206E+00      0.5148868058E+00
          0                 2           2             2    2     1      -0.4737135889E-03       2    2    1        -0.2542120034E-01      0.5124794178E-01
          0                 3           1             2    2     1       0.3225813098E-04       2    2    1         0.1779484243E-02      0.3565258007E-02

    ------------------------------------------------
       NWT REQUIRED            3 OUTER ITERATIONS 
       AND A TOTAL OF          5 INNER ITERATIONS.
    ------------------------------------------------

 NO OUTPUT CONTROL FOR STRESS PERIOD    3   TIME STEP   20
 
 SOLVING FOR HEAD 
                                                   Max.-Head-Change                         Max.-Flux-Residual
  Residual-Control   Outer-Iter.   Inner-Iter.     Column Row Layer    Maximum-Head-Change  Column Row Layer    Maximum-Flux-Residual          L2-NORM 
          0                 1           2             2    2     1       0.4840560851E-02       2    2    1         0.2526666643E+00      0.5071622080E+00
          0                 2           2             2    2     1      -0.4708554374E-03       2    2    1        -0.2526672370E-01      0.5050249960E-01
          0                 3           1             2    2     1       0.3206350177E-04       2    2    1         0.1768670896E-02      0.3515500124E-02

    ------------------------------------------------
       NWT REQUIRED            3 OUTER ITERATIONS 
       AND A TOTAL OF          5 INNER ITERATIONS.
    ------------------------------------------------

 NO OUTPUT CONTROL FOR STRESS PERIOD    3   TIME STEP   21
 
 SOLVING FOR HEAD 
                                                   Max.-Head-Change                         Max.-Flux-Residual
  Residual-Control   Outer-Iter.   Inner-Iter.     Column Row Layer    Maximum-Head-Change  Column Row Layer    Maximum-Flux-Residual          L2-NORM 
          0                 1           2             2    2     1       0.4811582746E-02       2    2    1         0.2511432039E+00      0.5000937098E+00
          0                 2           2             2    2     1      -0.4680366431E-03       2    2    1        -0.2511437668E-01      0.4982278199E-01
          0                 3           1             2    2     1       0.3187155194E-04       2    2    1         0.1758006591E-02      0.3472748536E-02

    ------------------------------------------------
       NWT REQUIRED            3 OUTER ITERATIONS 
       AND A TOTAL OF          5 INNER ITERATIONS.
    ------------------------------------------------

 NO OUTPUT CONTROL FOR STRESS PERIOD    3   TIME STEP   22
 
 SOLVING FOR HEAD 
                                                   Max.-Head-Change                         Max.-Flux-Residual
  Residual-Control   Outer-Iter.   Inner-Iter.     Column Row Layer    Maximum-Head-Change  Column Row Layer    Maximum-Flux-Residual          L2-NORM 
          0                 1           2             2    2     1       0.4783003515E-02       2    2    1         0.2496407217E+00      0.4936160908E+00
          0                 2           2             2    2     1      -0.4652566484E-03       2    2    1        -0.2496412750E-01      0.4919394424E-01
          0                 3           1             2    2     1       0.3168224456E-04       2    2    1         0.1747489150E-02      0.3428273419E-02

    ------------------------------------------------
       NWT REQUIRED            3 OUTER ITERATIONS 
       AND A TOTAL OF          5 INNER ITERATIONS.
    ------------------------------------------------

 NO OUTPUT CONTROL FOR STRESS PERIOD    3   TIME STEP   23
 
 SOLVING FOR HEAD 
                                                   Max.-Head-Change                         Max.-Flux-Residual
  Residual-Control   Outer-Iter.   Inner-Iter.     Column Row Layer    Maximum-Head-Change  Column Row Layer    Maximum-Flux-Residual          L2-NORM 
          0                 1           2             2    2     1       0.4754729257E-02       2    2    1         0.2481543635E+00      0.4876498957E+00
          0                 2           2             2    2     1      -0.4625063205E-03       2    2    1        -0.2481549076E-01      0.4861590763E-01
          0                 3           1             2    2     1       0.3149495767E-04       2    2    1         0.1737084590E-02      0.3389490762E-02

    ------------------------------------------------
       NWT REQUIRED            3 OUTER ITERATIONS 
       AND A TOTAL OF          5 INNER ITERATIONS.
    ------------------------------------------------

 NO OUTPUT CONTROL FOR STRESS PERIOD    3   TIME STEP   24
 
 SOLVING FOR HEAD 
                                                   Max.-Head-Change                         Max.-Flux-Residual
  Residual-Control   Outer-Iter.   Inner-Iter.     Column Row Layer    Maximum-Head-Change  Column Row Layer    Maximum-Flux-Residual          L2-NORM 
          0                 1           2             2    2     1       0.4726929154E-02       2    2    1         0.2466929324E+00      0.4821480205E+00
          0                 2           2             2    2     1      -0.4598021146E-03       2    2    1        -0.2466934672E-01      0.4808264004E-01
          0                 3           1             2    2     1       0.3131081142E-04       2    2    1         0.1726854515E-02      0.3353918015E-02

    ------------------------------------------------
       NWT REQUIRED            3 OUTER ITERATIONS 
       AND A TOTAL OF          5 INNER ITERATIONS.
    ------------------------------------------------

 NO OUTPUT CONTROL FOR STRESS PERIOD    3   TIME STEP   25
 
 SOLVING FOR HEAD 
                                                   Max.-Head-Change                         Max.-Flux-Residual
  Residual-Control   Outer-Iter.   Inner-Iter.     Column Row Layer    Maximum-Head-Change  Column Row Layer    Maximum-Flux-Residual          L2-NORM 
          0                 1           2             2    2     1       0.4699421599E-02       2    2    1         0.2452469708E+00      0.4770441481E+00
          0                 2           2             2    2     1      -0.4571263660E-03       2    2    1        -0.2452474967E-01      0.4758683128E-01
          0                 3           1             2    2     1       0.3112860330E-04       2    2    1         0.1716732723E-02      0.3320399761E-02

    ------------------------------------------------
       NWT REQUIRED            3 OUTER ITERATIONS 
       AND A TOTAL OF          5 INNER ITERATIONS.
    ------------------------------------------------

 NO OUTPUT CONTROL FOR STRESS PERIOD    3   TIME STEP   26
 
 SOLVING FOR HEAD 
                                                   Max.-Head-Change                         Max.-Flux-Residual
  Residual-Control   Outer-Iter.   Inner-Iter.     Column Row Layer    Maximum-Head-Change  Column Row Layer    Maximum-Flux-Residual          L2-NORM 
          0                 1           2             2    2     1       0.4672289189E-02       2    2    1         0.2438207350E+00      0.4723096784E+00
          0                 2           2             2    2     1      -0.4544871096E-03       2    2    1        -0.2438212524E-01      0.4712609710E-01
          0                 3           1             2    2     1       0.3094887977E-04       2    2    1         0.1706749022E-02      0.3289323165E-02

    ------------------------------------------------
       NWT REQUIRED            3 OUTER ITERATIONS 
       AND A TOTAL OF          5 INNER ITERATIONS.
    ------------------------------------------------

 NO OUTPUT CONTROL FOR STRESS PERIOD    3   TIME STEP   27
 
 SOLVING FOR HEAD 
                                                   Max.-Head-Change                         Max.-Flux-Residual
  Residual-Control   Outer-Iter.   Inner-Iter.     Column Row Layer    Maximum-Head-Change  Column Row Layer    Maximum-Flux-Residual          L2-NORM 
          0                 1           2             2    2     1       0.4645525634E-02       2    2    1         0.2424139500E+00      0.4678977169E+00
          0                 2           2             2    2     1      -0.4518837322E-03       2    2    1        -0.2424144588E-01      0.4669644227E-01
          0                 3           1             2    2     1       0.3077159918E-04       2    2    1         0.1696901457E-02      0.3260302389E-02

    ------------------------------------------------
       NWT REQUIRED            3 OUTER ITERATIONS 
       AND A TOTAL OF          5 INNER ITERATIONS.
    ------------------------------------------------

 NO OUTPUT CONTROL FOR STRESS PERIOD    3   TIME STEP   28
 
 SOLVING FOR HEAD 
                                                   Max.-Head-Change                         Max.-Flux-Residual
  Residual-Control   Outer-Iter.   Inner-Iter.     Column Row Layer    Maximum-Head-Change  Column Row Layer    Maximum-Flux-Residual          L2-NORM 
          0                 1           2             2    2     1       0.4619038651E-02       2    2    1         0.2410217318E+00      0.4637718241E+00
          0                 2           2             2    2     1      -0.4493072587E-03       2    2    1        -0.2410222323E-01      0.4629376131E-01
          0                 3           1             2    2     1       0.3059615139E-04       2    2    1         0.1687155890E-02      0.3232867274E-02

    ------------------------------------------------
       NWT REQUIRED            3 OUTER ITERATIONS 
       AND A TOTAL OF          5 INNER ITERATIONS.
    ------------------------------------------------

 NO OUTPUT CONTROL FOR STRESS PERIOD    3   TIME STEP   29
 
 SOLVING FOR HEAD 
                                                   Max.-Head-Change                         Max.-Flux-Residual
  Residual-Control   Outer-Iter.   Inner-Iter.     Column Row Layer    Maximum-Head-Change  Column Row Layer    Maximum-Flux-Residual          L2-NORM 
          0                 1           2             4   13     1       0.1233764695E-01       4   13    1         0.7106705653E+00      0.1463898131E+01
          0                 2           2             4   13     1      -0.1186832481E-02       4   13    1        -0.7028982513E-01      0.1429497875E+00
          0                 3           1             4   13     1       0.7957547730E-04       4   13    1         0.4845459470E-02      0.9686432290E-02

    ------------------------------------------------
       NWT REQUIRED            3 OUTER ITERATIONS 
       AND A TOTAL OF          5 INNER ITERATIONS.
    ------------------------------------------------

 NO OUTPUT CONTROL FOR STRESS PERIOD    3   TIME STEP   30



 STREAM LISTING     PERIOD      3   STEP       30

 LAYER ROW COL. STREAM  RCH.  FLOW INTO     FLOW TO   FLOW OUT OF   OVRLND.     DIRECT     STREAM       STREAM     STREAM     STREAM   STREAMBED  STREAMBED
                SEG.NO.  NO.  STRM. RCH.    AQUIFER    STRM. RCH.    RUNOFF     PRECIP       ET          HEAD       DEPTH      WIDTH   CONDCTNC.   GRADIENT

   1    1    1     1     1    7.2502E+01  4.1419E-01   7.2087E+01  0.000E+00  0.000E+00  0.000E+00  1.09472E+03  1.670E+00  1.971E+01  8.868E-02  1.557E+00
   1    2    2     1     2    7.2087E+01  6.4160E-01   7.1446E+01  0.000E+00  0.000E+00  0.000E+00  1.08972E+03  1.665E+00  1.965E+01  1.375E-01  1.555E+00
   1    3    3     1     3    7.1446E+01  5.4733E-01   7.0899E+01  0.000E+00  0.000E+00  0.000E+00  1.08408E+03  1.658E+00  1.958E+01  1.175E-01  1.553E+00
   1    3    4     1     4    7.0899E+01  5.0414E-01   7.0394E+01  0.000E+00  0.000E+00  0.000E+00  1.07906E+03  1.652E+00  1.953E+01  1.084E-01  1.551E+00
   1    4    5     2     1    6.8394E+01  4.0598E-01   6.7988E+01  0.000E+00  0.000E+00  0.000E+00  1.07414E+03  2.205E+00  1.200E+01  7.800E-02  1.735E+00
   1    5    6     2     2    6.7988E+01  3.1187E-01   6.7677E+01  0.000E+00  0.000E+00  0.000E+00  1.06871E+03  2.198E+00  1.200E+01  6.000E-02  1.733E+00
   1    6    6     2     3    6.7677E+01  3.1151E-01   6.7365E+01  0.000E+00  0.000E+00  0.000E+00  1.06398E+03  2.192E+00  1.200E+01  6.000E-02  1.731E+00
   1    7    6     2     4    6.7365E+01  3.1115E-01   6.7054E+01  0.000E+00  0.000E+00  0.000E+00  1.05926E+03  2.186E+00  1.200E+01  6.000E-02  1.729E+00
   1    8    6     2     5    6.7054E+01  3.1078E-01   6.6743E+01  0.000E+00  0.000E+00  0.000E+00  1.05454E+03  2.180E+00  1.200E+01  6.000E-02  1.727E+00
   1    3    5     3     1    2.0000E+00  2.8252E-01   1.7175E+00  0.000E+00  0.000E+00  0.000E+00  1.07555E+03  1.909E+00  9.636E+00  7.227E-02  1.955E+00
   1    3    6     3     2    1.7175E+00  2.4905E-01   1.4684E+00  0.000E+00  0.000E+00  0.000E+00  1.07264E+03  1.727E+00  8.909E+00  6.682E-02  1.864E+00
   1    3    7     3     3    1.4684E+00  1.9718E-01   1.2712E+00  0.000E+00  0.000E+00  0.000E+00  1.06987E+03  1.555E+00  8.218E+00  5.547E-02  1.777E+00
   1    4    8     3     4    1.2712E+00  2.2567E-01   1.0456E+00  0.000E+00  0.000E+00  0.000E+00  1.06682E+03  1.364E+00  7.455E+00  6.709E-02  1.682E+00
   1    5    8     3     5    1.0456E+00  1.5790E-01   8.8768E-01  0.000E+00  0.000E+00  0.000E+00  1.06362E+03  1.164E+00  6.655E+00  4.991E-02  1.582E+00
   1    6    8     3     6    8.8768E-01  5.5980E-02   8.3170E-01  0.000E+00  0.000E+00  0.000E+00  1.06158E+03  1.036E+00  6.145E+00  1.844E-02  1.518E+00
   1    5   10     4     1    1.0000E+01  9.0919E-02   9.9091E+00  0.000E+00  0.000E+00  0.000E+00  1.07836E+03  6.368E-01  1.000E+01  2.500E-02  1.212E+00
   1    5    9     4     2    9.9091E+00  1.8158E-01   9.7275E+00  0.000E+00  0.000E+00  0.000E+00  1.07154E+03  6.315E-01  1.000E+01  5.000E-02  1.211E+00
   1    6    8     4     3    9.7275E+00  1.2689E-01   9.6006E+00  0.000E+00  0.000E+00  0.000E+00  1.06381E+03  6.256E-01  1.000E+01  3.500E-02  1.209E+00
   1    6    8     5     1    1.0432E+01  2.2686E-01   1.0205E+01  0.000E+00  0.000E+00  0.000E+00  1.05868E+03  6.790E-01  1.542E+01  6.166E-02  1.226E+00
   1    7    7     5     2    1.0205E+01  2.7894E-01   9.9265E+00  0.000E+00  0.000E+00  0.000E+00  1.05417E+03  6.732E-01  1.519E+01  7.594E-02  1.224E+00
   1    8    7     5     3    9.9265E+00  1.9221E-01   9.7343E+00  0.000E+00  0.000E+00  0.000E+00  1.04992E+03  6.676E-01  1.497E+01  5.241E-02  1.223E+00
   1    8    6     5     4    9.7343E+00  1.3577E-01   9.5985E+00  0.000E+00  0.000E+00  0.000E+00  1.04691E+03  6.637E-01  1.482E+01  3.706E-02  1.221E+00
   1    9    6     6     1    7.6342E+01  3.2296E-01   7.6019E+01  0.000E+00  0.000E+00  0.000E+00  1.04511E+03  2.383E+00  1.200E+01  6.000E-02  1.794E+00
   1   10    7     6     2    7.6019E+01  3.2260E-01   7.5696E+01  0.000E+00  0.000E+00  0.000E+00  1.04056E+03  2.377E+00  1.200E+01  6.000E-02  1.792E+00
   1   11    7     6     3    7.5696E+01  3.2224E-01   7.5374E+01  0.000E+00  0.000E+00  0.000E+00  1.03601E+03  2.371E+00  1.200E+01  6.000E-02  1.790E+00
   1   12    7     6     4    7.5374E+01  3.2187E-01   7.5052E+01  0.000E+00  0.000E+00  0.000E+00  1.03146E+03  2.365E+00  1.200E+01  6.000E-02  1.788E+00
   1   13    7     6     5    7.5052E+01  2.7035E-02   7.5025E+01  0.000E+00  0.000E+00  0.000E+00  1.02827E+03  2.361E+00  1.200E+01  2.400E-02  3.755E-01
   1   14    9     7     1    1.5000E+02  1.3312E+00   1.4867E+02  0.000E+00  0.000E+00  0.000E+00  1.03987E+03  2.288E+00  5.529E+01  5.593E-01  7.933E-01
   1   13    8     7     2    1.4867E+02  1.8193E+00   1.4685E+02  0.000E+00  0.000E+00  0.000E+00  1.03478E+03  2.279E+00  5.526E+01  6.148E-01  9.864E-01
   1   13    7     7     3    1.4685E+02  1.4219E+00   1.4543E+02  0.000E+00  0.000E+00  0.000E+00  1.02969E+03  2.271E+00  5.522E+01  5.585E-01  8.487E-01
   1   13    6     8     1    2.2045E+02  1.0869E+00   2.1937E+02  0.000E+00  0.000E+00  0.000E+00  1.02513E+03  3.251E+00  4.715E+01  4.804E-01  7.541E-01
   1   13    5     8     2    2.1937E+02  2.5867E-01   2.1911E+02  0.000E+00  0.000E+00  0.000E+00  1.01887E+03  3.248E+00  4.709E+01  4.799E-01  1.797E-01
   1   13    4     8     3    2.1911E+02 -1.9098E+00   2.2102E+02  0.000E+00  0.000E+00  0.000E+00  1.01263E+03  3.252E+00  4.716E+01  4.806E+00 -1.325E-01
   1   13    3     8     4    2.2102E+02 -3.1179E+00   2.2413E+02  0.000E+00  0.000E+00  0.000E+00  1.00639E+03  3.266E+00  4.736E+01  4.826E+00 -2.154E-01
   1   13    2     8     5    2.2413E+02 -1.9270E+00   2.2606E+02  0.000E+00  0.000E+00  0.000E+00  1.00015E+03  3.280E+00  4.756E+01  4.846E+00 -1.325E-01
   1   13    1     8     6    2.2606E+02 -1.5653E+00   2.2763E+02  0.000E+00  0.000E+00  0.000E+00  9.95164E+02  3.289E+00  4.770E+01  2.916E+00 -1.789E-01





UNSATURATED ZONE PACKAGE VOLUMETRIC BUDGET FOR  TIME STEP    30 STRESS PERIOD    3
  ------------------------------------------------------------------------------



     CUMULATIVE VOLUMES      L**3       RATES FOR THIS TIME STEP      L**3/T
     ------------------                 ------------------------

           IN:                                      IN:
           ---                                      ---
        INFILTRATION =     4531073.7455          INFILTRATION =           0.8475

          OUT:                                     OUT:
          ----                                     ----
              UZF ET =     3944959.1553                UZF ET =           0.7500
        UZF RECHARGE =       73224.0000          UZF RECHARGE =       0.0000E+00

            IN - OUT =      512890.5902              IN - OUT =       9.7500E-02

          STORAGE:                                 STORAGE:
          --------                                 --------
      STORAGE CHANGE =      512890.6306        STORAGE CHANGE =       9.7500E-02

 PERCENT DISCREPANCY IS DIFFERENCE BETWEEN IN-OUT MINUS CHANGE IN STORAGE
 DIVIDED BY THE AVERAGE OF IN AND OUT TIMES 100

 PERCENT DISCREPANCY =          -0.00     PERCENT DISCREPANCY =           0.00






1
  VOLUMETRIC BUDGET FOR AGRICULTURAL FIELDS AT  END OF TIME STEP   30, STRESS PERIOD   3
  ------------------------------------------------------------------------------

     CUMULATIVE VOLUMES      L**3       RATES FOR THIS TIME STEP      L**3/T
     ------------------                 ------------------------

           IN:                                      IN:
           ---                                      ---
               AG WELLS  =           0.0000                 AG WELLS  =           0.0000
      DIVERSION SEGMENTS =           0.0000        DIVERSION SEGMENTS =           0.0000
           GW IRRIGATION =           0.0000             GW IRRIGATION =           0.0000
           SW IRRIGATION =           0.0000             SW IRRIGATION =           0.0000
        SYSTEM LOSSES GW =           0.0000          SYSTEM LOSSES GW =           0.0000
        SYSTEM LOSSES SW =           0.0000          SYSTEM LOSSES SW =           0.0000

                TOTAL IN =           0.0000                  TOTAL IN =           0.0000

          OUT:                                     OUT:
          ----                                     ----
               AG WELLS  =           0.0000                 AG WELLS  =           0.0000
      DIVERSION SEGMENTS =           0.0000        DIVERSION SEGMENTS =           0.0000
           GW IRRIGATION =           0.0000             GW IRRIGATION =           0.0000
           SW IRRIGATION =           0.0000             SW IRRIGATION =           0.0000
        SYSTEM LOSSES GW =           0.0000          SYSTEM LOSSES GW =           0.0000
        SYSTEM LOSSES SW =           0.0000          SYSTEM LOSSES SW =           0.0000

               TOTAL OUT =           0.0000                 TOTAL OUT =           0.0000

                IN - OUT =           0.0000                  IN - OUT =           0.0000

     PERCENT DISCREPANCY =           0.00         PERCENT DISCREPANCY =           0.00



1
  VOLUMETRIC BUDGET FOR ENTIRE MODEL AT END OF TIME STEP   30, STRESS PERIOD   3
  ------------------------------------------------------------------------------

     CUMULATIVE VOLUMES      L**3       RATES FOR THIS TIME STEP      L**3/T
     ------------------                 ------------------------

           IN:                                      IN:
           ---                                      ---
             STORAGE     =     3047021.5000               STORAGE     =           0.4724
       CONSTANT HEAD     =           0.0000         CONSTANT HEAD     =           0.0000
     HEAD DEP BOUNDS     =     1525869.2500       HEAD DEP BOUNDS     =           0.2854
      STREAM LEAKAGE     =    63536332.0000        STREAM LEAKAGE     =          13.3947
        UZF RECHARGE     =       73223.9531          UZF RECHARGE     =           0.0000
               GW ET     =           0.0000                 GW ET     =           0.0000
     SURFACE LEAKAGE     =           0.0000       SURFACE LEAKAGE     =           0.0000
           AG WELLS      =           0.0000             AG WELLS      =           0.0000

                TOTAL IN =    68182448.0000                  TOTAL IN =          14.1525

          OUT:                                     OUT:
          ----                                     ----
             STORAGE     =    11250392.0000               STORAGE     =           5.3403
       CONSTANT HEAD     =           0.0000         CONSTANT HEAD     =           0.0000
     HEAD DEP BOUNDS     =     1549889.6250       HEAD DEP BOUNDS     =           0.2926
      STREAM LEAKAGE     =    55383876.0000        STREAM LEAKAGE     =           8.5200
        UZF RECHARGE     =           0.0000          UZF RECHARGE     =           0.0000
               GW ET     =         620.0454                 GW ET     =       9.2745E-04
     SURFACE LEAKAGE     =           0.0000       SURFACE LEAKAGE     =           0.0000
           AG WELLS      =           0.0000             AG WELLS      =           0.0000

               TOTAL OUT =    68184784.0000                 TOTAL OUT =          14.1539

                IN - OUT =       -2336.0000                  IN - OUT =      -1.3819E-03

     PERCENT DISCREPANCY =          -0.00         PERCENT DISCREPANCY =          -0.01






         TIME SUMMARY AT END OF TIME STEP   30 IN STRESS PERIOD    3
                    SECONDS     MINUTES      HOURS       DAYS        YEARS
                    -----------------------------------------------------------
   TIME STEP LENGTH  87667.      1461.1      24.352      1.0147     2.77799E-03
 STRESS PERIOD TIME 2.63000E+06  43833.      730.56      30.440     8.33397E-02
         TOTAL TIME 5.34640E+06  89107.      1485.1      61.880     0.16942    
1
1
                            STRESS PERIOD NO.    4, LENGTH =   2630000.    
                            -----------------------------------------------

                              NUMBER OF TIME STEPS =    30

                               MULTIPLIER FOR DELT =     1.000

                            INITIAL TIME STEP SIZE =   87666.66    

 REUSING NON-PARAMETER GHB CELLS FROM LAST STRESS PERIOD

      2 GHB CELLS

 REUSING STREAM SEGMENT DATA FROM LAST STRESS PERIOD



            AREAL INFILTRATION RATE
 READING ON UNIT   19 WITH FORMAT: (FREE)              

            1           2           3           4           5           6           7           8           9          10
 ........................................................................................................................
   1   1.0000E-10  2.0000E-10   0.000       0.000       0.000       0.000       0.000       0.000       0.000       0.000    
   2   2.0000E-10  1.0000E-10  2.0000E-10   0.000       0.000      8.0000E-10  8.0000E-10  5.0000E-10   0.000       0.000    
   3    0.000      5.0000E-10  1.0000E-10  1.0000E-10  8.0000E-10  8.0000E-10  5.0000E-10  5.0000E-10   0.000       0.000    
   4   8.0000E-10  5.0000E-10  1.0000E-10  1.0000E-10  1.0000E-10  1.0000E-10  1.0000E-10  1.0000E-10  2.0000E-10   0.000    
   5   8.0000E-10  5.0000E-10  1.0000E-10  1.0000E-10  1.0000E-10  1.0000E-10  1.0000E-10  1.0000E-10  1.0000E-10  1.0000E-10
   6   8.0000E-10  5.0000E-10  5.0000E-10  2.0000E-10  2.0000E-10  1.0000E-10  1.0000E-10  1.0000E-10  1.0000E-10  5.0000E-10
   7   8.0000E-10  5.0000E-10  5.0000E-10  2.0000E-10  2.0000E-10  1.0000E-10  1.0000E-10  2.0000E-10  2.0000E-10   0.000    
   8    0.000      5.0000E-10  5.0000E-10  2.0000E-10  2.0000E-10  1.0000E-10  1.0000E-10  2.0000E-10  5.0000E-10   0.000    
   9    0.000      5.0000E-10  5.0000E-10  2.0000E-10  2.0000E-10  1.0000E-10  1.0000E-10  2.0000E-10  5.0000E-10   0.000    
  10    0.000      5.0000E-10  5.0000E-10  2.0000E-10  2.0000E-10  1.0000E-10  1.0000E-10  2.0000E-10  5.0000E-10  8.0000E-10
  11    0.000      1.0000E-10  1.0000E-10  1.0000E-10  1.0000E-10  1.0000E-10  1.0000E-10  2.0000E-10  5.0000E-10   0.000    
  12   1.0000E-10  1.0000E-10  1.0000E-10  1.0000E-10  1.0000E-10  1.0000E-10  1.0000E-10  1.0000E-10  2.0000E-10   0.000    
  13   1.0000E-10  1.0000E-10  2.0000E-10  2.0000E-10  2.0000E-10  2.0000E-10  2.0000E-10  1.0000E-10  1.0000E-10   0.000    
  14    0.000      2.0000E-10  5.0000E-10  5.0000E-10  5.0000E-10  5.0000E-10  5.0000E-10  2.0000E-10  1.0000E-10   0.000    
  15    0.000       0.000      8.0000E-10  8.0000E-10  8.0000E-10  8.0000E-10   0.000       0.000       0.000       0.000    

                  ET RATE =  5.000000E-10

 USING ET EXTINCTION DEPTH FROM PREVIOUS STRESS PERIOD. CURRENT PERIOD IS:       4

 USING EXTINCTION WATER CONTENT FROM PREVIOUS STRESS PERIOD. CURRENT PERIOD IS:       4

 USING AIR ENTRY PRESSURE FROM PREVIOUS STRESS PERIOD. CURRENT PERIOD IS:       4

 USING ROOT PRESSURE HEAD FROM PREVIOUS STRESS PERIOD. CURRENT PERIOD IS:       4

 USING ROOT ACTIVITY FROM PREVIOUS STRESS PERIOD. CURRENT PERIOD IS:       4

 PROCESSING AG STRESS PERIOD DATA

 READING AG STRESS PERIOD DATA

 READING IRRIGATION WELL

 END PROCESSING AG STRESS PERIOD DATA OPTIONS
 
 SOLVING FOR HEAD 
                                                   Max.-Head-Change                         Max.-Flux-Residual
  Residual-Control   Outer-Iter.   Inner-Iter.     Column Row Layer    Maximum-Head-Change  Column Row Layer    Maximum-Flux-Residual          L2-NORM 
          0                 1           2             2   13     1       0.1291412078E-01       4   13    1         0.7419829281E+00      0.1544938060E+01
          0                 2           2             4   13     1      -0.1238783635E-02       4   13    1        -0.7337782499E-01      0.1509475752E+00
          0                 3           1             4   13     1       0.8310876464E-04       4   13    1         0.5058446806E-02      0.1035433779E-01

    ------------------------------------------------
       NWT REQUIRED            3 OUTER ITERATIONS 
       AND A TOTAL OF          5 INNER ITERATIONS.
    ------------------------------------------------

 NO OUTPUT CONTROL FOR STRESS PERIOD    4   TIME STEP    1
 
 SOLVING FOR HEAD 
                                                   Max.-Head-Change                         Max.-Flux-Residual
  Residual-Control   Outer-Iter.   Inner-Iter.     Column Row Layer    Maximum-Head-Change  Column Row Layer    Maximum-Flux-Residual          L2-NORM 
          0                 1           2             2   13     1       0.1188955969E-01       2   13    1         0.6731431908E+00      0.1450616462E+01
          0                 2           2             4   13     1      -0.1118338741E-02       4   13    1        -0.6619701266E-01      0.1417640058E+00
          0                 3           1             4   13     1       0.7494641554E-04       4   13    1         0.4561057022E-02      0.9614717009E-02

    ------------------------------------------------
       NWT REQUIRED            3 OUTER ITERATIONS 
       AND A TOTAL OF          5 INNER ITERATIONS.
    ------------------------------------------------

 NO OUTPUT CONTROL FOR STRESS PERIOD    4   TIME STEP    2
 
 SOLVING FOR HEAD 
                                                   Max.-Head-Change                         Max.-Flux-Residual
  Residual-Control   Outer-Iter.   Inner-Iter.     Column Row Layer    Maximum-Head-Change  Column Row Layer    Maximum-Flux-Residual          L2-NORM 
          0                 1           2             2   13     1       0.1094717874E-01       2   13    1         0.6197105550E+00      0.1366415956E+01
          0                 2           2             2   13     1      -0.1014816023E-02       4   13    1        -0.5976411908E-01      0.1336868793E+00
          0                 3           1             4   13     1       0.6771493970E-04       4   13    1         0.4117697884E-02      0.9083453569E-02

    ------------------------------------------------
       NWT REQUIRED            3 OUTER ITERATIONS 
       AND A TOTAL OF          5 INNER ITERATIONS.
    ------------------------------------------------

 NO OUTPUT CONTROL FOR STRESS PERIOD    4   TIME STEP    3
 
 SOLVING FOR HEAD 
                                                   Max.-Head-Change                         Max.-Flux-Residual
  Residual-Control   Outer-Iter.   Inner-Iter.     Column Row Layer    Maximum-Head-Change  Column Row Layer    Maximum-Flux-Residual          L2-NORM 
          0                 1           2             2   13     1       0.1008039878E-01       2   13    1         0.5705667495E+00      0.1291315612E+01
          0                 2           2             2   13     1      -0.9348989746E-03       2   13    1        -0.5439353912E-01      0.1264890339E+00
          0                 3           1             4   13     1       0.6121613531E-04       4   13    1         0.3719437842E-02      0.8608820741E-02

    ------------------------------------------------
       NWT REQUIRED            3 OUTER ITERATIONS 
       AND A TOTAL OF          5 INNER ITERATIONS.
    ------------------------------------------------

 NO OUTPUT CONTROL FOR STRESS PERIOD    4   TIME STEP    4
 
 SOLVING FOR HEAD 
                                                   Max.-Head-Change                         Max.-Flux-Residual
  Residual-Control   Outer-Iter.   Inner-Iter.     Column Row Layer    Maximum-Head-Change  Column Row Layer    Maximum-Flux-Residual          L2-NORM 
          0                 1           2             2   13     1       0.9283186994E-02       2   13    1         0.5253694967E+00      0.1224400863E+01
          0                 2           2             2   13     1      -0.8613135316E-03       2   13    1        -0.5010485687E-01      0.1200815214E+00
          0                 3           1             4   13     1       0.5540141963E-04       4   13    1         0.3363234146E-02      0.8187081237E-02

    ------------------------------------------------
       NWT REQUIRED            3 OUTER ITERATIONS 
       AND A TOTAL OF          5 INNER ITERATIONS.
    ------------------------------------------------

 NO OUTPUT CONTROL FOR STRESS PERIOD    4   TIME STEP    5
 
 SOLVING FOR HEAD 
                                                   Max.-Head-Change                         Max.-Flux-Residual
  Residual-Control   Outer-Iter.   Inner-Iter.     Column Row Layer    Maximum-Head-Change  Column Row Layer    Maximum-Flux-Residual          L2-NORM 
          0                 1           2             2   13     1       0.8549974915E-02       2   13    1         0.4838029440E+00      0.1164812224E+01
          0                 2           2             2   13     1      -0.7935824188E-03       2   13    1        -0.4615762446E-01      0.1143791499E+00
          0                 3           1             2    2     1       0.5140191434E-04       4   13    1         0.3042286572E-02      0.7811464721E-02

    ------------------------------------------------
       NWT REQUIRED            3 OUTER ITERATIONS 
       AND A TOTAL OF          5 INNER ITERATIONS.
    ------------------------------------------------

 NO OUTPUT CONTROL FOR STRESS PERIOD    4   TIME STEP    6
 
 SOLVING FOR HEAD 
                                                   Max.-Head-Change                         Max.-Flux-Residual
  Residual-Control   Outer-Iter.   Inner-Iter.     Column Row Layer    Maximum-Head-Change  Column Row Layer    Maximum-Flux-Residual          L2-NORM 
          0                 1           2             2   13     1       0.7875627088E-02       2   13    1         0.4455757370E+00      0.1111787265E+01
          0                 2           2             2    2     1      -0.7501961950E-03       2   13    1        -0.4252480749E-01      0.1093098227E+00
          0                 3           1             2    2     1       0.5108555791E-04       2    2    1         0.2818321109E-02      0.7479073570E-02

    ------------------------------------------------
       NWT REQUIRED            3 OUTER ITERATIONS 
       AND A TOTAL OF          5 INNER ITERATIONS.
    ------------------------------------------------

 NO OUTPUT CONTROL FOR STRESS PERIOD    4   TIME STEP    7
 
 SOLVING FOR HEAD 
                                                   Max.-Head-Change                         Max.-Flux-Residual
  Residual-Control   Outer-Iter.   Inner-Iter.     Column Row Layer    Maximum-Head-Change  Column Row Layer    Maximum-Flux-Residual          L2-NORM 
          0                 1           2             2    2     1       0.7665179640E-02       2   13    1         0.4104181933E+00      0.1064627355E+01
          0                 2           2             2    2     1      -0.7456151658E-03       2    2    1        -0.4001410346E-01      0.1048038506E+00
          0                 3           1             2    2     1       0.5077360716E-04       2    2    1         0.2800987080E-02      0.7181864194E-02

    ------------------------------------------------
       NWT REQUIRED            3 OUTER ITERATIONS 
       AND A TOTAL OF          5 INNER ITERATIONS.
    ------------------------------------------------

 NO OUTPUT CONTROL FOR STRESS PERIOD    4   TIME STEP    8
 
 SOLVING FOR HEAD 
                                                   Max.-Head-Change                         Max.-Flux-Residual
  Residual-Control   Outer-Iter.   Inner-Iter.     Column Row Layer    Maximum-Head-Change  Column Row Layer    Maximum-Flux-Residual          L2-NORM 
          0                 1           2             2    2     1       0.7618653017E-02       2    2    1         0.3976932327E+00      0.1022691401E+01
          0                 2           2             2    2     1      -0.7410893556E-03       2    2    1        -0.3976946691E-01      0.1007998258E+00
          0                 3           1             2    2     1       0.5046541667E-04       2    2    1         0.2783862523E-02      0.6919858343E-02

    ------------------------------------------------
       NWT REQUIRED            3 OUTER ITERATIONS 
       AND A TOTAL OF          5 INNER ITERATIONS.
    ------------------------------------------------

 NO OUTPUT CONTROL FOR STRESS PERIOD    4   TIME STEP    9
 
 SOLVING FOR HEAD 
                                                   Max.-Head-Change                         Max.-Flux-Residual
  Residual-Control   Outer-Iter.   Inner-Iter.     Column Row Layer    Maximum-Head-Change  Column Row Layer    Maximum-Flux-Residual          L2-NORM 
          0                 1           2             2    2     1       0.7572771882E-02       2    2    1         0.3952808855E+00      0.9853861600E+00
          0                 2           2             2    2     1      -0.7366263344E-03       2    2    1        -0.3952822971E-01      0.9723748214E-01
          0                 3           1             2    2     1       0.5016150120E-04       2    2    1         0.2766975919E-02      0.6686492975E-02

    ------------------------------------------------
       NWT REQUIRED            3 OUTER ITERATIONS 
       AND A TOTAL OF          5 INNER ITERATIONS.
    ------------------------------------------------

 NO OUTPUT CONTROL FOR STRESS PERIOD    4   TIME STEP   10
 
 SOLVING FOR HEAD 
                                                   Max.-Head-Change                         Max.-Flux-Residual
  Residual-Control   Outer-Iter.   Inner-Iter.     Column Row Layer    Maximum-Head-Change  Column Row Layer    Maximum-Flux-Residual          L2-NORM 
          0                 1           2             2    2     1       0.7527438292E-02       2    2    1         0.3928974452E+00      0.9522079556E+00
          0                 2           2             2    2     1      -0.7322165762E-03       2    2    1        -0.3928988327E-01      0.9407284951E-01
          0                 3           1             2    2     1       0.4986121394E-04       2    2    1         0.2750291704E-02      0.6478678436E-02

    ------------------------------------------------
       NWT REQUIRED            3 OUTER ITERATIONS 
       AND A TOTAL OF          5 INNER ITERATIONS.
    ------------------------------------------------

 NO OUTPUT CONTROL FOR STRESS PERIOD    4   TIME STEP   11
 
 SOLVING FOR HEAD 
                                                   Max.-Head-Change                         Max.-Flux-Residual
  Residual-Control   Outer-Iter.   Inner-Iter.     Column Row Layer    Maximum-Head-Change  Column Row Layer    Maximum-Flux-Residual          L2-NORM 
          0                 1           2             2    2     1       0.7482730438E-02       2    2    1         0.3905469552E+00      0.9226722516E+00
          0                 2           2             2    2     1      -0.7278676856E-03       2    2    1        -0.3905483191E-01      0.9125238079E-01
          0                 3           1             2    2     1       0.4956507107E-04       2    2    1         0.2733838133E-02      0.6293994993E-02

    ------------------------------------------------
       NWT REQUIRED            3 OUTER ITERATIONS 
       AND A TOTAL OF          5 INNER ITERATIONS.
    ------------------------------------------------

 NO OUTPUT CONTROL FOR STRESS PERIOD    4   TIME STEP   12
 
 SOLVING FOR HEAD 
                                                   Max.-Head-Change                         Max.-Flux-Residual
  Residual-Control   Outer-Iter.   Inner-Iter.     Column Row Layer    Maximum-Head-Change  Column Row Layer    Maximum-Flux-Residual          L2-NORM 
          0                 1           2             2    2     1       0.7438639107E-02       2    2    1         0.3882289088E+00      0.8963546897E+00
          0                 2           2             2    2     1      -0.7235787660E-03       2    2    1        -0.3882302495E-01      0.8873947831E-01
          0                 3           1             2    2     1       0.4927301152E-04       2    2    1         0.2717611634E-02      0.6128345566E-02

    ------------------------------------------------
       NWT REQUIRED            3 OUTER ITERATIONS 
       AND A TOTAL OF          5 INNER ITERATIONS.
    ------------------------------------------------

 NO OUTPUT CONTROL FOR STRESS PERIOD    4   TIME STEP   13
 
 SOLVING FOR HEAD 
                                                   Max.-Head-Change                         Max.-Flux-Residual
  Residual-Control   Outer-Iter.   Inner-Iter.     Column Row Layer    Maximum-Head-Change  Column Row Layer    Maximum-Flux-Residual          L2-NORM 
          0                 1           2             2    2     1       0.7395066856E-02       2    2    1         0.3859382668E+00      0.8728755287E+00
          0                 2           2             2    2     1      -0.7193403400E-03       2    2    1        -0.3859395849E-01      0.8649868429E-01
          0                 3           1             2    2     1       0.4898439107E-04       2    2    1         0.2701577017E-02      0.5982861611E-02

    ------------------------------------------------
       NWT REQUIRED            3 OUTER ITERATIONS 
       AND A TOTAL OF          5 INNER ITERATIONS.
    ------------------------------------------------

 NO OUTPUT CONTROL FOR STRESS PERIOD    4   TIME STEP   14
 
 SOLVING FOR HEAD 
                                                   Max.-Head-Change                         Max.-Flux-Residual
  Residual-Control   Outer-Iter.   Inner-Iter.     Column Row Layer    Maximum-Head-Change  Column Row Layer    Maximum-Flux-Residual          L2-NORM 
          0                 1           2             2    2     1       0.7352092727E-02       2    2    1         0.3836791000E+00      0.8518993382E+00
          0                 2           2             2    2     1      -0.7151600960E-03       2    2    1        -0.3836803961E-01      0.8449561466E-01
          0                 3           1             2    2     1       0.4869973229E-04       2    2    1         0.2685762706E-02      0.5850895979E-02

    ------------------------------------------------
       NWT REQUIRED            3 OUTER ITERATIONS 
       AND A TOTAL OF          5 INNER ITERATIONS.
    ------------------------------------------------

 NO OUTPUT CONTROL FOR STRESS PERIOD    4   TIME STEP   15
 
 SOLVING FOR HEAD 
                                                   Max.-Head-Change                         Max.-Flux-Residual
  Residual-Control   Outer-Iter.   Inner-Iter.     Column Row Layer    Maximum-Head-Change  Column Row Layer    Maximum-Flux-Residual          L2-NORM 
          0                 1           2             2    2     1       0.7309707230E-02       2    2    1         0.3814509450E+00      0.8331304374E+00
          0                 2           2             2    2     1      -0.7110371101E-03       2    2    1        -0.3814522195E-01      0.8270111232E-01
          0                 3           1             2    2     1       0.4841897223E-04       2    2    1         0.2670165472E-02      0.5733030289E-02

    ------------------------------------------------
       NWT REQUIRED            3 OUTER ITERATIONS 
       AND A TOTAL OF          5 INNER ITERATIONS.
    ------------------------------------------------

 NO OUTPUT CONTROL FOR STRESS PERIOD    4   TIME STEP   16
 
 SOLVING FOR HEAD 
                                                   Max.-Head-Change                         Max.-Flux-Residual
  Residual-Control   Outer-Iter.   Inner-Iter.     Column Row Layer    Maximum-Head-Change  Column Row Layer    Maximum-Flux-Residual          L2-NORM 
          0                 1           2             2    2     1       0.7267901031E-02       2    2    1         0.3792533099E+00      0.8162929267E+00
          0                 2           2             2    2     1      -0.7069704754E-03       2    2    1        -0.3792545636E-01      0.8109084788E-01
          0                 3           1             2    2     1       0.4814204983E-04       2    2    1         0.2654781905E-02      0.5626816912E-02

    ------------------------------------------------
       NWT REQUIRED            3 OUTER ITERATIONS 
       AND A TOTAL OF          5 INNER ITERATIONS.
    ------------------------------------------------

 NO OUTPUT CONTROL FOR STRESS PERIOD    4   TIME STEP   17
 
 SOLVING FOR HEAD 
                                                   Max.-Head-Change                         Max.-Flux-Residual
  Residual-Control   Outer-Iter.   Inner-Iter.     Column Row Layer    Maximum-Head-Change  Column Row Layer    Maximum-Flux-Residual          L2-NORM 
          0                 1           2             2    2     1       0.7226578003E-02       2    2    1         0.3770811483E+00      0.8011506912E+00
          0                 2           2             2    2     1      -0.7029508402E-03       2    2    1        -0.3770823813E-01      0.7964098574E-01
          0                 3           1             2    2     1       0.4786832772E-04       2    2    1         0.2639576631E-02      0.5531315593E-02

    ------------------------------------------------
       NWT REQUIRED            3 OUTER ITERATIONS 
       AND A TOTAL OF          5 INNER ITERATIONS.
    ------------------------------------------------

 NO OUTPUT CONTROL FOR STRESS PERIOD    4   TIME STEP   18
 
 SOLVING FOR HEAD 
                                                   Max.-Head-Change                         Max.-Flux-Residual
  Residual-Control   Outer-Iter.   Inner-Iter.     Column Row Layer    Maximum-Head-Change  Column Row Layer    Maximum-Flux-Residual          L2-NORM 
          0                 1           2             2    2     1       0.7185817090E-02       2    2    1         0.3749386008E+00      0.7875070108E+00
          0                 2           2             2    2     1      -0.6989858848E-03       2    2    1        -0.3749398137E-01      0.7833273815E-01
          0                 3           1             2    2     1       0.4759832991E-04       2    2    1         0.2624578687E-02      0.5445000809E-02

    ------------------------------------------------
       NWT REQUIRED            3 OUTER ITERATIONS 
       AND A TOTAL OF          5 INNER ITERATIONS.
    ------------------------------------------------

 NO OUTPUT CONTROL FOR STRESS PERIOD    4   TIME STEP   19
 
 SOLVING FOR HEAD 
                                                   Max.-Head-Change                         Max.-Flux-Residual
  Residual-Control   Outer-Iter.   Inner-Iter.     Column Row Layer    Maximum-Head-Change  Column Row Layer    Maximum-Flux-Residual          L2-NORM 
          0                 1           2             2    2     1       0.7145522110E-02       2    2    1         0.3728206354E+00      0.7751638527E+00
          0                 2           2             2    2     1      -0.6950662525E-03       2    2    1        -0.3728218286E-01      0.7714856412E-01
          0                 3           1             2    2     1       0.4733141760E-04       2    2    1         0.2609752820E-02      0.5367115503E-02

    ------------------------------------------------
       NWT REQUIRED            3 OUTER ITERATIONS 
       AND A TOTAL OF          5 INNER ITERATIONS.
    ------------------------------------------------

 NO OUTPUT CONTROL FOR STRESS PERIOD    4   TIME STEP   20
 
 SOLVING FOR HEAD 
                                                   Max.-Head-Change                         Max.-Flux-Residual
  Residual-Control   Outer-Iter.   Inner-Iter.     Column Row Layer    Maximum-Head-Change  Column Row Layer    Maximum-Flux-Residual          L2-NORM 
          0                 1           2             2    2     1       0.7105773113E-02       2    2    1         0.3707313907E+00      0.7639714519E+00
          0                 2           2             2    2     1      -0.6911997295E-03       2    2    1        -0.3707325647E-01      0.7607257109E-01
          0                 3           1             2    2     1       0.4706812214E-04       2    2    1         0.2595127967E-02      0.5295636288E-02

    ------------------------------------------------
       NWT REQUIRED            3 OUTER ITERATIONS 
       AND A TOTAL OF          5 INNER ITERATIONS.
    ------------------------------------------------

 NO OUTPUT CONTROL FOR STRESS PERIOD    4   TIME STEP   21
 
 SOLVING FOR HEAD 
                                                   Max.-Head-Change                         Max.-Flux-Residual
  Residual-Control   Outer-Iter.   Inner-Iter.     Column Row Layer    Maximum-Head-Change  Column Row Layer    Maximum-Flux-Residual          L2-NORM 
          0                 1           2             2    2     1       0.7066561038E-02       2    2    1         0.3686704548E+00      0.7538013824E+00
          0                 2           2             2    2     1      -0.6873854355E-03       2    2    1        -0.3686716101E-01      0.7509378762E-01
          0                 3           1             2    2     1       0.4680838269E-04       2    2    1         0.2580701293E-02      0.5230576660E-02

    ------------------------------------------------
       NWT REQUIRED            3 OUTER ITERATIONS 
       AND A TOTAL OF          5 INNER ITERATIONS.
    ------------------------------------------------

 NO OUTPUT CONTROL FOR STRESS PERIOD    4   TIME STEP   22
 
 SOLVING FOR HEAD 
                                                   Max.-Head-Change                         Max.-Flux-Residual
  Residual-Control   Outer-Iter.   Inner-Iter.     Column Row Layer    Maximum-Head-Change  Column Row Layer    Maximum-Flux-Residual          L2-NORM 
          0                 1           2             2    2     1       0.7027878183E-02       2    2    1         0.3666373575E+00      0.7445176753E+00
          0                 2           2             2    2     1      -0.6836226205E-03       2    2    1        -0.3666384943E-01      0.7419851630E-01
          0                 3           1             2    2     1       0.4655214908E-04       2    2    1         0.2566469479E-02      0.5171094733E-02

    ------------------------------------------------
       NWT REQUIRED            3 OUTER ITERATIONS 
       AND A TOTAL OF          5 INNER ITERATIONS.
    ------------------------------------------------

 NO OUTPUT CONTROL FOR STRESS PERIOD    4   TIME STEP   23
 
 SOLVING FOR HEAD 
                                                   Max.-Head-Change                         Max.-Flux-Residual
  Residual-Control   Outer-Iter.   Inner-Iter.     Column Row Layer    Maximum-Head-Change  Column Row Layer    Maximum-Flux-Residual          L2-NORM 
          0                 1           2             2    2     1       0.6989628530E-02       2    2    1         0.3646271360E+00      0.7360061713E+00
          0                 2           2             2    2     1      -0.6799019457E-03       2    2    1        -0.3646282549E-01      0.7337673028E-01
          0                 3           1             2    2     1       0.4629878561E-04       2    2    1         0.2552397840E-02      0.5116042803E-02

    ------------------------------------------------
       NWT REQUIRED            3 OUTER ITERATIONS 
       AND A TOTAL OF          5 INNER ITERATIONS.
    ------------------------------------------------

 NO OUTPUT CONTROL FOR STRESS PERIOD    4   TIME STEP   24
 
 SOLVING FOR HEAD 
                                                   Max.-Head-Change                         Max.-Flux-Residual
  Residual-Control   Outer-Iter.   Inner-Iter.     Column Row Layer    Maximum-Head-Change  Column Row Layer    Maximum-Flux-Residual          L2-NORM 
          0                 1           2             2    2     1       0.6951891894E-02       2    2    1         0.3626439390E+00      0.7281990690E+00
          0                 2           2             2    2     1      -0.6762311728E-03       2    2    1        -0.3626450401E-01      0.7262139131E-01
          0                 3           1             2    2     1       0.4604881935E-04       2    2    1         0.2538515327E-02      0.5065316708E-02

    ------------------------------------------------
       NWT REQUIRED            3 OUTER ITERATIONS 
       AND A TOTAL OF          5 INNER ITERATIONS.
    ------------------------------------------------

 NO OUTPUT CONTROL FOR STRESS PERIOD    4   TIME STEP   25
 
 SOLVING FOR HEAD 
                                                   Max.-Head-Change                         Max.-Flux-Residual
  Residual-Control   Outer-Iter.   Inner-Iter.     Column Row Layer    Maximum-Head-Change  Column Row Layer    Maximum-Flux-Residual          L2-NORM 
          0                 1           2             2    2     1       0.6914661345E-02       2    2    1         0.3606873414E+00      0.7209915511E+00
          0                 2           2             2    2     1      -0.6726096300E-03       2    2    1        -0.3606884255E-01      0.7192342868E-01
          0                 3           1             2    2     1       0.4580220627E-04       2    2    1         0.2524819050E-02      0.5018425722E-02

    ------------------------------------------------
       NWT REQUIRED            3 OUTER ITERATIONS 
       AND A TOTAL OF          5 INNER ITERATIONS.
    ------------------------------------------------

 NO OUTPUT CONTROL FOR STRESS PERIOD    4   TIME STEP   26
 
 SOLVING FOR HEAD 
                                                   Max.-Head-Change                         Max.-Flux-Residual
  Residual-Control   Outer-Iter.   Inner-Iter.     Column Row Layer    Maximum-Head-Change  Column Row Layer    Maximum-Flux-Residual          L2-NORM 
          0                 1           2             2    2     1       0.6877928148E-02       2    2    1         0.3587569838E+00      0.7143396397E+00
          0                 2           2             2    2     1      -0.6690364662E-03       2    2    1        -0.3587580513E-01      0.7127809270E-01
          0                 3           1             2    2     1       0.4555888698E-04       2    2    1         0.2511306422E-02      0.4975278795E-02

    ------------------------------------------------
       NWT REQUIRED            3 OUTER ITERATIONS 
       AND A TOTAL OF          5 INNER ITERATIONS.
    ------------------------------------------------

 NO OUTPUT CONTROL FOR STRESS PERIOD    4   TIME STEP   27
 
 SOLVING FOR HEAD 
                                                   Max.-Head-Change                         Max.-Flux-Residual
  Residual-Control   Outer-Iter.   Inner-Iter.     Column Row Layer    Maximum-Head-Change  Column Row Layer    Maximum-Flux-Residual          L2-NORM 
          0                 1           2             2    2     1       0.6841597596E-02       2    2    1         0.3568478487E+00      0.7081476880E+00
          0                 2           2             2    2     1      -0.6655024691E-03       2    2    1        -0.3568488996E-01      0.7067626704E-01
          0                 3           1             2    2     1       0.4531823546E-04       2    2    1         0.2497942376E-02      0.4934773698E-02

    ------------------------------------------------
       NWT REQUIRED            3 OUTER ITERATIONS 
       AND A TOTAL OF          5 INNER ITERATIONS.
    ------------------------------------------------

 NO OUTPUT CONTROL FOR STRESS PERIOD    4   TIME STEP   28
 
 SOLVING FOR HEAD 
                                                   Max.-Head-Change                         Max.-Flux-Residual
  Residual-Control   Outer-Iter.   Inner-Iter.     Column Row Layer    Maximum-Head-Change  Column Row Layer    Maximum-Flux-Residual          L2-NORM 
          0                 1           2             2    2     1       0.6805750388E-02       2    2    1         0.3549641547E+00      0.7023917770E+00
          0                 2           2             2    2     1      -0.6620154888E-03       2    2    1        -0.3549651895E-01      0.7011597016E-01
          0                 3           1             2    2     1       0.4508078519E-04       2    2    1         0.2484756405E-02      0.4897013193E-02

    ------------------------------------------------
       NWT REQUIRED            3 OUTER ITERATIONS 
       AND A TOTAL OF          5 INNER ITERATIONS.
    ------------------------------------------------

 NO OUTPUT CONTROL FOR STRESS PERIOD    4   TIME STEP   29
 
 SOLVING FOR HEAD 
                                                   Max.-Head-Change                         Max.-Flux-Residual
  Residual-Control   Outer-Iter.   Inner-Iter.     Column Row Layer    Maximum-Head-Change  Column Row Layer    Maximum-Flux-Residual          L2-NORM 
          0                 1           2             2    2     1       0.5350702560E-02       2    2    1         0.2788864371E+00      0.6872008100E+00
          0                 2           2             2    2     1      -0.5204783244E-03       2    2    1        -0.2788870166E-01      0.6809450817E-01
          0                 3           1             2    2     1       0.3544263565E-04       2    2    1         0.1952209401E-02      0.4709191553E-02

    ------------------------------------------------
       NWT REQUIRED            3 OUTER ITERATIONS 
       AND A TOTAL OF          5 INNER ITERATIONS.
    ------------------------------------------------

 NO OUTPUT CONTROL FOR STRESS PERIOD    4   TIME STEP   30



 STREAM LISTING     PERIOD      4   STEP       30

 LAYER ROW COL. STREAM  RCH.  FLOW INTO     FLOW TO   FLOW OUT OF   OVRLND.     DIRECT     STREAM       STREAM     STREAM     STREAM   STREAMBED  STREAMBED
                SEG.NO.  NO.  STRM. RCH.    AQUIFER    STRM. RCH.    RUNOFF     PRECIP       ET          HEAD       DEPTH      WIDTH   CONDCTNC.   GRADIENT

   1    1    1     1     1    6.2247E+01  3.7977E-01   6.1867E+01  0.000E+00  0.000E+00  0.000E+00  1.09460E+03  1.553E+00  1.854E+01  8.342E-02  1.518E+00
   1    2    2     1     2    6.1867E+01  5.8816E-01   6.1279E+01  0.000E+00  0.000E+00  0.000E+00  1.08961E+03  1.547E+00  1.848E+01  1.294E-01  1.516E+00
   1    3    3     1     3    6.1279E+01  5.0162E-01   6.0777E+01  0.000E+00  0.000E+00  0.000E+00  1.08396E+03  1.540E+00  1.841E+01  1.105E-01  1.513E+00
   1    3    4     1     4    6.0777E+01  4.6193E-01   6.0316E+01  0.000E+00  0.000E+00  0.000E+00  1.07894E+03  1.534E+00  1.836E+01  1.019E-01  1.511E+00
   1    4    5     2     1    5.8316E+01  3.9026E-01   5.7925E+01  0.000E+00  0.000E+00  0.000E+00  1.07394E+03  2.003E+00  1.200E+01  7.800E-02  1.668E+00
   1    5    6     2     2    5.7925E+01  2.9977E-01   5.7626E+01  0.000E+00  0.000E+00  0.000E+00  1.06851E+03  1.996E+00  1.200E+01  6.000E-02  1.665E+00
   1    6    6     2     3    5.7626E+01  2.9940E-01   5.7326E+01  0.000E+00  0.000E+00  0.000E+00  1.06378E+03  1.990E+00  1.200E+01  6.000E-02  1.663E+00
   1    7    6     2     4    5.7326E+01  2.9902E-01   5.7027E+01  0.000E+00  0.000E+00  0.000E+00  1.05906E+03  1.984E+00  1.200E+01  6.000E-02  1.661E+00
   1    8    6     2     5    5.7027E+01  2.9865E-01   5.6728E+01  0.000E+00  0.000E+00  0.000E+00  1.05434E+03  1.977E+00  1.200E+01  6.000E-02  1.659E+00
   1    3    5     3     1    2.0000E+00  2.8252E-01   1.7175E+00  0.000E+00  0.000E+00  0.000E+00  1.07555E+03  1.909E+00  9.636E+00  7.227E-02  1.955E+00
   1    3    6     3     2    1.7175E+00  2.4905E-01   1.4684E+00  0.000E+00  0.000E+00  0.000E+00  1.07264E+03  1.727E+00  8.909E+00  6.682E-02  1.864E+00
   1    3    7     3     3    1.4684E+00  1.9718E-01   1.2712E+00  0.000E+00  0.000E+00  0.000E+00  1.06987E+03  1.555E+00  8.218E+00  5.547E-02  1.777E+00
   1    4    8     3     4    1.2712E+00  2.2567E-01   1.0456E+00  0.000E+00  0.000E+00  0.000E+00  1.06682E+03  1.364E+00  7.455E+00  6.709E-02  1.682E+00
   1    5    8     3     5    1.0456E+00  1.5790E-01   8.8768E-01  0.000E+00  0.000E+00  0.000E+00  1.06362E+03  1.164E+00  6.655E+00  4.991E-02  1.582E+00
   1    6    8     3     6    8.8768E-01  5.5980E-02   8.3170E-01  0.000E+00  0.000E+00  0.000E+00  1.06158E+03  1.036E+00  6.145E+00  1.844E-02  1.518E+00
   1    5   10     4     1    1.0000E+01  9.0919E-02   9.9091E+00  0.000E+00  0.000E+00  0.000E+00  1.07836E+03  6.368E-01  1.000E+01  2.500E-02  1.212E+00
   1    5    9     4     2    9.9091E+00  1.8158E-01   9.7275E+00  0.000E+00  0.000E+00  0.000E+00  1.07154E+03  6.315E-01  1.000E+01  5.000E-02  1.211E+00
   1    6    8     4     3    9.7275E+00  1.2689E-01   9.6006E+00  0.000E+00  0.000E+00  0.000E+00  1.06381E+03  6.256E-01  1.000E+01  3.500E-02  1.209E+00
   1    6    8     5     1    1.0432E+01  2.2686E-01   1.0205E+01  0.000E+00  0.000E+00  0.000E+00  1.05868E+03  6.790E-01  1.542E+01  6.166E-02  1.226E+00
   1    7    7     5     2    1.0205E+01  2.7894E-01   9.9265E+00  0.000E+00  0.000E+00  0.000E+00  1.05417E+03  6.732E-01  1.519E+01  7.594E-02  1.224E+00
   1    8    7     5     3    9.9265E+00  1.9221E-01   9.7343E+00  0.000E+00  0.000E+00  0.000E+00  1.04992E+03  6.676E-01  1.497E+01  5.241E-02  1.223E+00
   1    8    6     5     4    9.7343E+00  1.3577E-01   9.5985E+00  0.000E+00  0.000E+00  0.000E+00  1.04691E+03  6.637E-01  1.482E+01  3.706E-02  1.221E+00
   1    9    6     6     1    6.6327E+01  3.1138E-01   6.6016E+01  0.000E+00  0.000E+00  0.000E+00  1.04492E+03  2.190E+00  1.200E+01  6.000E-02  1.730E+00
   1   10    7     6     2    6.6016E+01  3.1101E-01   6.5705E+01  0.000E+00  0.000E+00  0.000E+00  1.04037E+03  2.183E+00  1.200E+01  6.000E-02  1.728E+00
   1   11    7     6     3    6.5705E+01  3.1064E-01   6.5394E+01  0.000E+00  0.000E+00  0.000E+00  1.03581E+03  2.177E+00  1.200E+01  6.000E-02  1.726E+00
   1   12    7     6     4    6.5394E+01  3.1026E-01   6.5084E+01  0.000E+00  0.000E+00  0.000E+00  1.03126E+03  2.171E+00  1.200E+01  6.000E-02  1.724E+00
   1   13    7     6     5    6.5084E+01  2.1634E-02   6.5062E+01  0.000E+00  0.000E+00  0.000E+00  1.02808E+03  2.168E+00  1.200E+01  2.400E-02  3.005E-01
   1   14    9     7     1    1.5000E+02  1.3316E+00   1.4867E+02  0.000E+00  0.000E+00  0.000E+00  1.03987E+03  2.288E+00  5.529E+01  5.593E-01  7.936E-01
   1   13    8     7     2    1.4867E+02  1.8148E+00   1.4685E+02  0.000E+00  0.000E+00  0.000E+00  1.03478E+03  2.279E+00  5.526E+01  6.148E-01  9.840E-01
   1   13    7     7     3    1.4685E+02  1.4044E+00   1.4545E+02  0.000E+00  0.000E+00  0.000E+00  1.02969E+03  2.271E+00  5.522E+01  5.585E-01  8.382E-01
   1   13    6     8     1    2.1051E+02  1.0054E+00   2.0951E+02  0.000E+00  0.000E+00  0.000E+00  1.02507E+03  3.196E+00  4.634E+01  4.722E-01  7.097E-01
   1   13    5     8     2    2.0951E+02  1.9100E-01   2.0931E+02  0.000E+00  0.000E+00  0.000E+00  1.01882E+03  3.192E+00  4.629E+01  4.717E-01  1.350E-01
   1   13    4     8     3    2.0931E+02 -2.6809E+00   2.1200E+02  0.000E+00  0.000E+00  0.000E+00  1.01257E+03  3.199E+00  4.639E+01  4.727E+00 -1.890E-01
   1   13    3     8     4    2.1200E+02 -3.8539E+00   2.1585E+02  0.000E+00  0.000E+00  0.000E+00  1.00634E+03  3.218E+00  4.666E+01  4.755E+00 -2.702E-01
   1   13    2     8     5    2.1585E+02 -2.7437E+00   2.1859E+02  0.000E+00  0.000E+00  0.000E+00  1.00011E+03  3.236E+00  4.693E+01  4.782E+00 -1.912E-01
   1   13    1     8     6    2.1859E+02 -2.0240E+00   2.2062E+02  0.000E+00  0.000E+00  0.000E+00  9.95125E+02  3.250E+00  4.712E+01  2.881E+00 -2.342E-01





UNSATURATED ZONE PACKAGE VOLUMETRIC BUDGET FOR  TIME STEP    30 STRESS PERIOD    4
  ------------------------------------------------------------------------------



     CUMULATIVE VOLUMES      L**3       RATES FOR THIS TIME STEP      L**3/T
     ------------------                 ------------------------

           IN:                                      IN:
           ---                                      ---
        INFILTRATION =     6759998.6182          INFILTRATION =           0.8475

          OUT:                                     OUT:
          ----                                     ----
              UZF ET =     5917459.0304                UZF ET =           0.7500
        UZF RECHARGE =       73224.0000          UZF RECHARGE =       0.0000E+00

            IN - OUT =      769315.5878              IN - OUT =       9.7500E-02

          STORAGE:                                 STORAGE:
          --------                                 --------
      STORAGE CHANGE =      769315.6504        STORAGE CHANGE =       9.7500E-02

 PERCENT DISCREPANCY IS DIFFERENCE BETWEEN IN-OUT MINUS CHANGE IN STORAGE
 DIVIDED BY THE AVERAGE OF IN AND OUT TIMES 100

 PERCENT DISCREPANCY =           0.00     PERCENT DISCREPANCY =           0.00






1
  VOLUMETRIC BUDGET FOR AGRICULTURAL FIELDS AT  END OF TIME STEP   30, STRESS PERIOD   4
  ------------------------------------------------------------------------------

     CUMULATIVE VOLUMES      L**3       RATES FOR THIS TIME STEP      L**3/T
     ------------------                 ------------------------

           IN:                                      IN:
           ---                                      ---
               AG WELLS  =           0.0000                 AG WELLS  =           0.0000
      DIVERSION SEGMENTS =           0.0000        DIVERSION SEGMENTS =           0.0000
           GW IRRIGATION =           0.0000             GW IRRIGATION =           0.0000
           SW IRRIGATION =           0.0000             SW IRRIGATION =           0.0000
        SYSTEM LOSSES GW =           0.0000          SYSTEM LOSSES GW =           0.0000
        SYSTEM LOSSES SW =           0.0000          SYSTEM LOSSES SW =           0.0000

                TOTAL IN =           0.0000                  TOTAL IN =           0.0000

          OUT:                                     OUT:
          ----                                     ----
               AG WELLS  =           0.0000                 AG WELLS  =           0.0000
      DIVERSION SEGMENTS =           0.0000        DIVERSION SEGMENTS =           0.0000
           GW IRRIGATION =           0.0000             GW IRRIGATION =           0.0000
           SW IRRIGATION =           0.0000             SW IRRIGATION =           0.0000
        SYSTEM LOSSES GW =           0.0000          SYSTEM LOSSES GW =           0.0000
        SYSTEM LOSSES SW =           0.0000          SYSTEM LOSSES SW =           0.0000

               TOTAL OUT =           0.0000                 TOTAL OUT =           0.0000

                IN - OUT =           0.0000                  IN - OUT =           0.0000

     PERCENT DISCREPANCY =           0.00         PERCENT DISCREPANCY =           0.00



1
  VOLUMETRIC BUDGET FOR ENTIRE MODEL AT END OF TIME STEP   30, STRESS PERIOD   4
  ------------------------------------------------------------------------------

     CUMULATIVE VOLUMES      L**3       RATES FOR THIS TIME STEP      L**3/T
     ------------------                 ------------------------

           IN:                                      IN:
           ---                                      ---
             STORAGE     =     4269829.5000               STORAGE     =           1.1052
       CONSTANT HEAD     =           0.0000         CONSTANT HEAD     =           0.0000
     HEAD DEP BOUNDS     =     2276621.5000       HEAD DEP BOUNDS     =           0.2855
      STREAM LEAKAGE     =    98974160.0000        STREAM LEAKAGE     =          12.9321
        UZF RECHARGE     =       73223.9531          UZF RECHARGE     =           0.0000
               GW ET     =           0.0000                 GW ET     =           0.0000
     SURFACE LEAKAGE     =           0.0000       SURFACE LEAKAGE     =           0.0000
           AG WELLS      =           0.0000             AG WELLS      =           0.0000

                TOTAL IN =   105593832.0000                  TOTAL IN =          14.3228

          OUT:                                     OUT:
          ----                                     ----
             STORAGE     =    22369452.0000               STORAGE     =           2.7188
       CONSTANT HEAD     =           0.0000         CONSTANT HEAD     =           0.0000
     HEAD DEP BOUNDS     =     2327708.2500       HEAD DEP BOUNDS     =           0.2974
      STREAM LEAKAGE     =    80891960.0000        STREAM LEAKAGE     =          11.3025
        UZF RECHARGE     =           0.0000          UZF RECHARGE     =           0.0000
               GW ET     =        9869.2041                 GW ET     =       4.4240E-03
     SURFACE LEAKAGE     =           0.0000       SURFACE LEAKAGE     =           0.0000
           AG WELLS      =           0.0000             AG WELLS      =           0.0000

               TOTAL OUT =   105598992.0000                 TOTAL OUT =          14.3232

                IN - OUT =       -5160.0000                  IN - OUT =      -4.5967E-04

     PERCENT DISCREPANCY =          -0.00         PERCENT DISCREPANCY =          -0.00






         TIME SUMMARY AT END OF TIME STEP   30 IN STRESS PERIOD    4
                    SECONDS     MINUTES      HOURS       DAYS        YEARS
                    -----------------------------------------------------------
   TIME STEP LENGTH  87667.      1461.1      24.352      1.0147     2.77799E-03
 STRESS PERIOD TIME 2.63000E+06  43833.      730.56      30.440     8.33397E-02
         TOTAL TIME 7.97639E+06 1.32940E+05  2215.7      92.319     0.25276    
1
1
                            STRESS PERIOD NO.    5, LENGTH =   2630000.    
                            -----------------------------------------------

                              NUMBER OF TIME STEPS =    30

                               MULTIPLIER FOR DELT =     1.000

                            INITIAL TIME STEP SIZE =   87666.66    

 REUSING NON-PARAMETER GHB CELLS FROM LAST STRESS PERIOD

      2 GHB CELLS

 REUSING STREAM SEGMENT DATA FROM LAST STRESS PERIOD



            AREAL INFILTRATION RATE
 READING ON UNIT   19 WITH FORMAT: (FREE)              

            1           2           3           4           5           6           7           8           9          10
 ........................................................................................................................
   1   1.0000E-10  2.0000E-10   0.000       0.000       0.000       0.000       0.000       0.000       0.000       0.000    
   2   2.0000E-10  1.0000E-10  2.0000E-10   0.000       0.000      8.0000E-10  8.0000E-10  5.0000E-10   0.000       0.000    
   3    0.000      5.0000E-10  1.0000E-10  1.0000E-10  8.0000E-10  8.0000E-10  5.0000E-10  5.0000E-10   0.000       0.000    
   4   8.0000E-10  5.0000E-10  1.0000E-10  1.0000E-10  1.0000E-10  1.0000E-10  1.0000E-10  1.0000E-10  2.0000E-10   0.000    
   5   8.0000E-10  5.0000E-10  1.0000E-10  1.0000E-10  1.0000E-10  1.0000E-10  1.0000E-10  1.0000E-10  1.0000E-10  1.0000E-10
   6   8.0000E-10  5.0000E-10  5.0000E-10  2.0000E-10  2.0000E-10  1.0000E-10  1.0000E-10  1.0000E-10  1.0000E-10  5.0000E-10
   7   8.0000E-10  5.0000E-10  5.0000E-10  2.0000E-10  2.0000E-10  1.0000E-10  1.0000E-10  2.0000E-10  2.0000E-10   0.000    
   8    0.000      5.0000E-10  5.0000E-10  2.0000E-10  2.0000E-10  1.0000E-10  1.0000E-10  2.0000E-10  5.0000E-10   0.000    
   9    0.000      5.0000E-10  5.0000E-10  2.0000E-10  2.0000E-10  1.0000E-10  1.0000E-10  2.0000E-10  5.0000E-10   0.000    
  10    0.000      5.0000E-10  5.0000E-10  2.0000E-10  2.0000E-10  1.0000E-10  1.0000E-10  2.0000E-10  5.0000E-10  8.0000E-10
  11    0.000      1.0000E-10  1.0000E-10  1.0000E-10  1.0000E-10  1.0000E-10  1.0000E-10  2.0000E-10  5.0000E-10   0.000    
  12   1.0000E-10  1.0000E-10  1.0000E-10  1.0000E-10  1.0000E-10  1.0000E-10  1.0000E-10  1.0000E-10  2.0000E-10   0.000    
  13   1.0000E-10  1.0000E-10  2.0000E-10  2.0000E-10  2.0000E-10  2.0000E-10  2.0000E-10  1.0000E-10  1.0000E-10   0.000    
  14    0.000      2.0000E-10  5.0000E-10  5.0000E-10  5.0000E-10  5.0000E-10  5.0000E-10  2.0000E-10  1.0000E-10   0.000    
  15    0.000       0.000      8.0000E-10  8.0000E-10  8.0000E-10  8.0000E-10   0.000       0.000       0.000       0.000    

                  ET RATE =  2.500000E-08

 USING ET EXTINCTION DEPTH FROM PREVIOUS STRESS PERIOD. CURRENT PERIOD IS:       5

 USING EXTINCTION WATER CONTENT FROM PREVIOUS STRESS PERIOD. CURRENT PERIOD IS:       5

 USING AIR ENTRY PRESSURE FROM PREVIOUS STRESS PERIOD. CURRENT PERIOD IS:       5

 USING ROOT PRESSURE HEAD FROM PREVIOUS STRESS PERIOD. CURRENT PERIOD IS:       5

 USING ROOT ACTIVITY FROM PREVIOUS STRESS PERIOD. CURRENT PERIOD IS:       5

 PROCESSING AG STRESS PERIOD DATA

 READING AG STRESS PERIOD DATA

 READING IRRIGATION WELL

 END PROCESSING AG STRESS PERIOD DATA OPTIONS
 
 SOLVING FOR HEAD 
                                                   Max.-Head-Change                         Max.-Flux-Residual
  Residual-Control   Outer-Iter.   Inner-Iter.     Column Row Layer    Maximum-Head-Change  Column Row Layer    Maximum-Flux-Residual          L2-NORM 
          0                 1           2             4   13     1      -0.1883719382E-01       4   13    1        -0.1104091054E+01      0.2347076251E+01
          0                 2           2             4   13     1       0.1817347249E-02       4   13    1         0.1095196267E+00      0.2310437768E+00
          0                 3           2             4   13     1      -0.1223476811E-03       4   13    1        -0.7580669818E-02      0.1585851821E-01
          0                 4           1             4   13     1       0.4780420785E-05       4   13    1         0.3045513267E-03      0.6287198887E-03

    ------------------------------------------------
       NWT REQUIRED            4 OUTER ITERATIONS 
       AND A TOTAL OF          7 INNER ITERATIONS.
    ------------------------------------------------

 NO OUTPUT CONTROL FOR STRESS PERIOD    5   TIME STEP    1
 
 SOLVING FOR HEAD 
                                                   Max.-Head-Change                         Max.-Flux-Residual
  Residual-Control   Outer-Iter.   Inner-Iter.     Column Row Layer    Maximum-Head-Change  Column Row Layer    Maximum-Flux-Residual          L2-NORM 
          0                 1           2             4   13     1      -0.1670873104E-01       4   13    1        -0.9789545288E+00      0.2200922982E+01
          0                 2           2             4   13     1       0.1611867557E-02       4   13    1         0.9709872577E-01      0.2170934552E+00
          0                 3           1             4   13     1      -0.1085079654E-03       4   13    1        -0.6720525742E-02      0.1491873281E-01
          0                 4           1             4   13     1       0.4239556269E-05       4   13    1         0.2699938141E-03      0.5923799263E-03

    ------------------------------------------------
       NWT REQUIRED            4 OUTER ITERATIONS 
       AND A TOTAL OF          6 INNER ITERATIONS.
    ------------------------------------------------

 OUTPUT CONTROL FOR STRESS PERIOD    5   TIME STEP    2
    PRINT BUDGET
    SAVE BUDGET
 UBDSV1 SAVING "         STORAGE" ON UNIT 102 AT TIME STEP  2, STRESS PERIOD   5
 UBDSV2 SAVING "   CONSTANT HEAD" ON UNIT 102 AT TIME STEP  2, STRESS PERIOD   5
 UBDSV1 SAVING "FLOW RIGHT FACE " ON UNIT 102 AT TIME STEP  2, STRESS PERIOD   5
 UBDSV1 SAVING "FLOW FRONT FACE " ON UNIT 102 AT TIME STEP  2, STRESS PERIOD   5

  HEAD DEP BOUNDS   PERIOD    5   STEP     2
 BOUNDARY      1   LAYER   1   ROW    13   COL     1   RATE   -0.296895    
 BOUNDARY      2   LAYER   1   ROW    14   COL     9   RATE    0.285471    



 STREAM LISTING     PERIOD      5   STEP        2

 LAYER ROW COL. STREAM  RCH.  FLOW INTO     FLOW TO   FLOW OUT OF   OVRLND.     DIRECT     STREAM       STREAM     STREAM     STREAM   STREAMBED  STREAMBED
                SEG.NO.  NO.  STRM. RCH.    AQUIFER    STRM. RCH.    RUNOFF     PRECIP       ET          HEAD       DEPTH      WIDTH   CONDCTNC.   GRADIENT

   1    1    1     1     1    2.8000E+01  2.5860E-01   2.7741E+01  0.000E+00  0.000E+00  0.000E+00  1.09427E+03  1.221E+00  1.361E+01  6.126E-02  1.407E+00
   1    2    2     1     2    2.7741E+01  4.0002E-01   2.7341E+01  0.000E+00  0.000E+00  0.000E+00  1.08928E+03  1.217E+00  1.355E+01  9.487E-02  1.406E+00
   1    3    3     1     3    2.7341E+01  3.4070E-01   2.7001E+01  0.000E+00  0.000E+00  0.000E+00  1.08363E+03  1.212E+00  1.348E+01  8.090E-02  1.404E+00
   1    3    4     1     4    2.7001E+01  3.1335E-01   2.6687E+01  0.000E+00  0.000E+00  0.000E+00  1.07861E+03  1.207E+00  1.342E+01  7.448E-02  1.402E+00
   1    4    5     2     1    2.4687E+01  3.2711E-01   2.4360E+01  0.000E+00  0.000E+00  0.000E+00  1.07313E+03  1.194E+00  1.200E+01  7.800E-02  1.398E+00
   1    5    6     2     2    2.4360E+01  2.5111E-01   2.4109E+01  0.000E+00  0.000E+00  0.000E+00  1.06769E+03  1.185E+00  1.200E+01  6.000E-02  1.395E+00
   1    6    6     2     3    2.4109E+01  2.5067E-01   2.3858E+01  0.000E+00  0.000E+00  0.000E+00  1.06297E+03  1.178E+00  1.200E+01  6.000E-02  1.393E+00
   1    7    6     2     4    2.3858E+01  2.5023E-01   2.3608E+01  0.000E+00  0.000E+00  0.000E+00  1.05825E+03  1.170E+00  1.200E+01  6.000E-02  1.390E+00
   1    8    6     2     5    2.3608E+01  2.4978E-01   2.3358E+01  0.000E+00  0.000E+00  0.000E+00  1.05352E+03  1.163E+00  1.200E+01  6.000E-02  1.388E+00
   1    3    5     3     1    2.0000E+00  2.8252E-01   1.7175E+00  0.000E+00  0.000E+00  0.000E+00  1.07555E+03  1.909E+00  9.636E+00  7.227E-02  1.955E+00
   1    3    6     3     2    1.7175E+00  2.4905E-01   1.4684E+00  0.000E+00  0.000E+00  0.000E+00  1.07264E+03  1.727E+00  8.909E+00  6.682E-02  1.864E+00
   1    3    7     3     3    1.4684E+00  1.9718E-01   1.2712E+00  0.000E+00  0.000E+00  0.000E+00  1.06987E+03  1.555E+00  8.218E+00  5.547E-02  1.777E+00
   1    4    8     3     4    1.2712E+00  2.2567E-01   1.0456E+00  0.000E+00  0.000E+00  0.000E+00  1.06682E+03  1.364E+00  7.455E+00  6.709E-02  1.682E+00
   1    5    8     3     5    1.0456E+00  1.5790E-01   8.8768E-01  0.000E+00  0.000E+00  0.000E+00  1.06362E+03  1.164E+00  6.655E+00  4.991E-02  1.582E+00
   1    6    8     3     6    8.8768E-01  5.5980E-02   8.3170E-01  0.000E+00  0.000E+00  0.000E+00  1.06158E+03  1.036E+00  6.145E+00  1.844E-02  1.518E+00
   1    5   10     4     1    1.0000E+01  9.0919E-02   9.9091E+00  0.000E+00  0.000E+00  0.000E+00  1.07836E+03  6.368E-01  1.000E+01  2.500E-02  1.212E+00
   1    5    9     4     2    9.9091E+00  1.8158E-01   9.7275E+00  0.000E+00  0.000E+00  0.000E+00  1.07154E+03  6.315E-01  1.000E+01  5.000E-02  1.211E+00
   1    6    8     4     3    9.7275E+00  1.2689E-01   9.6006E+00  0.000E+00  0.000E+00  0.000E+00  1.06381E+03  6.256E-01  1.000E+01  3.500E-02  1.209E+00
   1    6    8     5     1    1.0432E+01  2.2686E-01   1.0205E+01  0.000E+00  0.000E+00  0.000E+00  1.05868E+03  6.790E-01  1.542E+01  6.166E-02  1.226E+00
   1    7    7     5     2    1.0205E+01  2.7894E-01   9.9265E+00  0.000E+00  0.000E+00  0.000E+00  1.05417E+03  6.732E-01  1.519E+01  7.594E-02  1.224E+00
   1    8    7     5     3    9.9265E+00  1.9221E-01   9.7343E+00  0.000E+00  0.000E+00  0.000E+00  1.04992E+03  6.676E-01  1.497E+01  5.241E-02  1.223E+00
   1    8    6     5     4    9.7343E+00  1.3577E-01   9.5985E+00  0.000E+00  0.000E+00  0.000E+00  1.04691E+03  6.637E-01  1.482E+01  3.706E-02  1.221E+00
   1    9    6     6     1    3.2957E+01  2.6627E-01   3.2691E+01  0.000E+00  0.000E+00  0.000E+00  1.04417E+03  1.438E+00  1.200E+01  6.000E-02  1.479E+00
   1   10    7     6     2    3.2691E+01  2.6584E-01   3.2425E+01  0.000E+00  0.000E+00  0.000E+00  1.03961E+03  1.431E+00  1.200E+01  6.000E-02  1.477E+00
   1   11    7     6     3    3.2425E+01  2.6542E-01   3.2159E+01  0.000E+00  0.000E+00  0.000E+00  1.03506E+03  1.424E+00  1.200E+01  6.000E-02  1.475E+00
   1   12    7     6     4    3.2159E+01  2.6500E-01   3.1894E+01  0.000E+00  0.000E+00  0.000E+00  1.03051E+03  1.417E+00  1.200E+01  6.000E-02  1.472E+00
   1   13    7     6     5    3.1894E+01  3.4993E-03   3.1891E+01  0.000E+00  0.000E+00  0.000E+00  1.02732E+03  1.413E+00  1.200E+01  2.400E-02  4.860E-02
   1   14    9     7     1    1.5000E+02  1.3316E+00   1.4867E+02  0.000E+00  0.000E+00  0.000E+00  1.03987E+03  2.288E+00  5.529E+01  5.593E-01  7.936E-01
   1   13    8     7     2    1.4867E+02  1.8145E+00   1.4685E+02  0.000E+00  0.000E+00  0.000E+00  1.03478E+03  2.279E+00  5.526E+01  6.148E-01  9.838E-01
   1   13    7     7     3    1.4685E+02  1.4038E+00   1.4545E+02  0.000E+00  0.000E+00  0.000E+00  1.02969E+03  2.271E+00  5.522E+01  5.585E-01  8.379E-01
   1   13    6     8     1    1.7734E+02  8.5616E-01   1.7648E+02  0.000E+00  0.000E+00  0.000E+00  1.02487E+03  2.997E+00  4.345E+01  4.428E-01  6.445E-01
   1   13    5     8     2    1.7648E+02  9.2005E-02   1.7639E+02  0.000E+00  0.000E+00  0.000E+00  1.01862E+03  2.994E+00  4.341E+01  4.423E-01  6.933E-02
   1   13    4     8     3    1.7639E+02 -3.2421E+00   1.7963E+02  0.000E+00  0.000E+00  0.000E+00  1.01238E+03  3.004E+00  4.355E+01  4.438E+00 -2.435E-01
   1   13    3     8     4    1.7963E+02 -4.3427E+00   1.8398E+02  0.000E+00  0.000E+00  0.000E+00  1.00615E+03  3.027E+00  4.390E+01  4.473E+00 -3.236E-01
   1   13    2     8     5    1.8398E+02 -3.2978E+00   1.8728E+02  0.000E+00  0.000E+00  0.000E+00  9.99926E+02  3.051E+00  4.424E+01  4.508E+00 -2.438E-01
   1   13    1     8     6    1.8728E+02 -2.3653E+00   1.8964E+02  0.000E+00  0.000E+00  0.000E+00  9.94944E+02  3.069E+00  4.449E+01  2.720E+00 -2.898E-01



 UBDSV3 SAVING "           GW ET" ON UNIT  61 AT TIME STEP  2, STRESS PERIOD   5
 UBDSV3 SAVING "    UZF RECHARGE" ON UNIT  61 AT TIME STEP  2, STRESS PERIOD   5
 UBDSV3 SAVING " SURFACE LEAKAGE" ON UNIT  61 AT TIME STEP  2, STRESS PERIOD   5
 UBDSV3 SAVING "       HORT+DUNN" ON UNIT  61 AT TIME STEP  2, STRESS PERIOD   5
 UBDSV3 SAVING "  STORAGE CHANGE" ON UNIT  61 AT TIME STEP  2, STRESS PERIOD   5


UNSATURATED ZONE PACKAGE VOLUMETRIC BUDGET FOR  TIME STEP     2 STRESS PERIOD    5
  ------------------------------------------------------------------------------



     CUMULATIVE VOLUMES      L**3       RATES FOR THIS TIME STEP      L**3/T
     ------------------                 ------------------------

           IN:                                      IN:
           ---                                      ---
        INFILTRATION =     7560925.7584          INFILTRATION =           4.5675

          OUT:                                     OUT:
          ----                                     ----
              UZF ET =     7487024.6105                UZF ET =           5.5360
        UZF RECHARGE =       73224.0000          UZF RECHARGE =       0.0000E+00

            IN - OUT =         677.1479              IN - OUT =          -0.9685

          STORAGE:                                 STORAGE:
          --------                                 --------
      STORAGE CHANGE =         677.2272        STORAGE CHANGE =          -0.9685

 PERCENT DISCREPANCY IS DIFFERENCE BETWEEN IN-OUT MINUS CHANGE IN STORAGE
 DIVIDED BY THE AVERAGE OF IN AND OUT TIMES 100

 PERCENT DISCREPANCY =           0.00     PERCENT DISCREPANCY =           0.00






 

            AG WELLS      PERIOD    5   STEP   2
 AG WELL      1   LAYER   1   ROW     6   COL     4   RATE   -0.620000    
 AG WELL      2   LAYER   1   ROW     6   COL     5   RATE   -0.620000    
 AG WELL      3   LAYER   1   ROW     7   COL     4   RATE   -0.620000    
 AG WELL      4   LAYER   1   ROW     7   COL     5   RATE   -0.620000    
 AG WELL      5   LAYER   1   ROW     8   COL     4   RATE   -0.620000    
 AG WELL      6   LAYER   1   ROW     8   COL     5   RATE   -0.620000    
 
 

        GW IRRIGATION     PERIOD    5   STEP   2
 AG WELL      1   ROW     6   COL     4   RATE    0.620000    
 AG WELL      2   ROW     6   COL     5   RATE    0.620000    
 AG WELL      3   ROW     7   COL     4   RATE    0.620000    
 AG WELL      4   ROW     7   COL     5   RATE    0.620000    
 AG WELL      5   ROW     8   COL     4   RATE    0.620000    
 AG WELL      6   ROW     8   COL     5   RATE    0.620000    
 
1
  VOLUMETRIC BUDGET FOR AGRICULTURAL FIELDS AT  END OF TIME STEP    2, STRESS PERIOD   5
  ------------------------------------------------------------------------------

     CUMULATIVE VOLUMES      L**3       RATES FOR THIS TIME STEP      L**3/T
     ------------------                 ------------------------

           IN:                                      IN:
           ---                                      ---
               AG WELLS  =      652332.1250                 AG WELLS  =           3.7200
      DIVERSION SEGMENTS =           0.0000        DIVERSION SEGMENTS =           0.0000
           GW IRRIGATION =           0.0000             GW IRRIGATION =           0.0000
           SW IRRIGATION =           0.0000             SW IRRIGATION =           0.0000
        SYSTEM LOSSES GW =           0.0000          SYSTEM LOSSES GW =           0.0000
        SYSTEM LOSSES SW =           0.0000          SYSTEM LOSSES SW =           0.0000

                TOTAL IN =      652332.1250                  TOTAL IN =           3.7200

          OUT:                                     OUT:
          ----                                     ----
               AG WELLS  =           0.0000                 AG WELLS  =           0.0000
      DIVERSION SEGMENTS =           0.0000        DIVERSION SEGMENTS =           0.0000
           GW IRRIGATION =      652332.1250             GW IRRIGATION =           3.7200
           SW IRRIGATION =           0.0000             SW IRRIGATION =           0.0000
        SYSTEM LOSSES GW =           0.0000          SYSTEM LOSSES GW =           0.0000
        SYSTEM LOSSES SW =           0.0000          SYSTEM LOSSES SW =           0.0000

               TOTAL OUT =      652332.1250                 TOTAL OUT =           3.7200

                IN - OUT =           0.0000                  IN - OUT =           0.0000

     PERCENT DISCREPANCY =           0.00         PERCENT DISCREPANCY =           0.00



1
  VOLUMETRIC BUDGET FOR ENTIRE MODEL AT END OF TIME STEP    2, STRESS PERIOD   5
  ------------------------------------------------------------------------------

     CUMULATIVE VOLUMES      L**3       RATES FOR THIS TIME STEP      L**3/T
     ------------------                 ------------------------

           IN:                                      IN:
           ---                                      ---
             STORAGE     =     5542502.5000               STORAGE     =           7.1038
       CONSTANT HEAD     =           0.0000         CONSTANT HEAD     =           0.0000
     HEAD DEP BOUNDS     =     2326674.0000       HEAD DEP BOUNDS     =           0.2855
      STREAM LEAKAGE     =   101009216.0000        STREAM LEAKAGE     =          11.6071
        UZF RECHARGE     =       73223.9531          UZF RECHARGE     =           0.0000
               GW ET     =           0.0000                 GW ET     =           0.0000
     SURFACE LEAKAGE     =           0.0000       SURFACE LEAKAGE     =           0.0000
           AG WELLS      =           0.0000             AG WELLS      =           0.0000

                TOTAL IN =   108951616.0000                  TOTAL IN =          18.9964

          OUT:                                     OUT:
          ----                                     ----
             STORAGE     =    22628574.0000               STORAGE     =           1.4433
       CONSTANT HEAD     =           0.0000         CONSTANT HEAD     =           0.0000
     HEAD DEP BOUNDS     =     2379787.0000       HEAD DEP BOUNDS     =           0.2969
      STREAM LEAKAGE     =    83232472.0000        STREAM LEAKAGE     =          13.2480
        UZF RECHARGE     =           0.0000          UZF RECHARGE     =           0.0000
               GW ET     =       63605.7500                 GW ET     =           0.2882
     SURFACE LEAKAGE     =           0.0000       SURFACE LEAKAGE     =           0.0000
           AG WELLS      =      652332.1250             AG WELLS      =           3.7200

               TOTAL OUT =   108956776.0000                 TOTAL OUT =          18.9964

                IN - OUT =       -5160.0000                  IN - OUT =      -1.5259E-05

     PERCENT DISCREPANCY =          -0.00         PERCENT DISCREPANCY =          -0.00






         TIME SUMMARY AT END OF TIME STEP    2 IN STRESS PERIOD    5
                    SECONDS     MINUTES      HOURS       DAYS        YEARS
                    -----------------------------------------------------------
   TIME STEP LENGTH  87667.      1461.1      24.352      1.0147     2.77799E-03
 STRESS PERIOD TIME 1.75333E+05  2922.2      48.704      2.0293     5.55598E-03
         TOTAL TIME 8.15173E+06 1.35862E+05  2264.4      94.349     0.25831    
1
 
 SOLVING FOR HEAD 
                                                   Max.-Head-Change                         Max.-Flux-Residual
  Residual-Control   Outer-Iter.   Inner-Iter.     Column Row Layer    Maximum-Head-Change  Column Row Layer    Maximum-Flux-Residual          L2-NORM 
          0                 1           2             4   13     1      -0.1482687637E-01       4   13    1        -0.8683452140E+00      0.2072523913E+01
          0                 2           2             4   13     1       0.1430201418E-02       4   13    1         0.8612012047E-01      0.2046077101E+00
          0                 3           1             4   13     1      -0.9625734516E-04       4   13    1        -0.5959317681E-02      0.1407767030E-01

    ------------------------------------------------
       NWT REQUIRED            3 OUTER ITERATIONS 
       AND A TOTAL OF          5 INNER ITERATIONS.
    ------------------------------------------------

 OUTPUT CONTROL FOR STRESS PERIOD    5   TIME STEP    3
    PRINT BUDGET
    SAVE BUDGET
 UBDSV1 SAVING "         STORAGE" ON UNIT 102 AT TIME STEP  3, STRESS PERIOD   5
 UBDSV2 SAVING "   CONSTANT HEAD" ON UNIT 102 AT TIME STEP  3, STRESS PERIOD   5
 UBDSV1 SAVING "FLOW RIGHT FACE " ON UNIT 102 AT TIME STEP  3, STRESS PERIOD   5
 UBDSV1 SAVING "FLOW FRONT FACE " ON UNIT 102 AT TIME STEP  3, STRESS PERIOD   5

  HEAD DEP BOUNDS   PERIOD    5   STEP     3
 BOUNDARY      1   LAYER   1   ROW    13   COL     1   RATE   -0.296639    
 BOUNDARY      2   LAYER   1   ROW    14   COL     9   RATE    0.285472    



 STREAM LISTING     PERIOD      5   STEP        3

 LAYER ROW COL. STREAM  RCH.  FLOW INTO     FLOW TO   FLOW OUT OF   OVRLND.     DIRECT     STREAM       STREAM     STREAM     STREAM   STREAMBED  STREAMBED
                SEG.NO.  NO.  STRM. RCH.    AQUIFER    STRM. RCH.    RUNOFF     PRECIP       ET          HEAD       DEPTH      WIDTH   CONDCTNC.   GRADIENT

   1    1    1     1     1    2.8000E+01  2.5860E-01   2.7741E+01  0.000E+00  0.000E+00  0.000E+00  1.09427E+03  1.221E+00  1.361E+01  6.126E-02  1.407E+00
   1    2    2     1     2    2.7741E+01  4.0002E-01   2.7341E+01  0.000E+00  0.000E+00  0.000E+00  1.08928E+03  1.217E+00  1.355E+01  9.487E-02  1.406E+00
   1    3    3     1     3    2.7341E+01  3.4070E-01   2.7001E+01  0.000E+00  0.000E+00  0.000E+00  1.08363E+03  1.212E+00  1.348E+01  8.090E-02  1.404E+00
   1    3    4     1     4    2.7001E+01  3.1335E-01   2.6687E+01  0.000E+00  0.000E+00  0.000E+00  1.07861E+03  1.207E+00  1.342E+01  7.448E-02  1.402E+00
   1    4    5     2     1    2.4687E+01  3.2711E-01   2.4360E+01  0.000E+00  0.000E+00  0.000E+00  1.07313E+03  1.194E+00  1.200E+01  7.800E-02  1.398E+00
   1    5    6     2     2    2.4360E+01  2.5111E-01   2.4109E+01  0.000E+00  0.000E+00  0.000E+00  1.06769E+03  1.185E+00  1.200E+01  6.000E-02  1.395E+00
   1    6    6     2     3    2.4109E+01  2.5067E-01   2.3858E+01  0.000E+00  0.000E+00  0.000E+00  1.06297E+03  1.178E+00  1.200E+01  6.000E-02  1.393E+00
   1    7    6     2     4    2.3858E+01  2.5023E-01   2.3608E+01  0.000E+00  0.000E+00  0.000E+00  1.05825E+03  1.170E+00  1.200E+01  6.000E-02  1.390E+00
   1    8    6     2     5    2.3608E+01  2.4978E-01   2.3358E+01  0.000E+00  0.000E+00  0.000E+00  1.05352E+03  1.163E+00  1.200E+01  6.000E-02  1.388E+00
   1    3    5     3     1    2.0000E+00  2.8252E-01   1.7175E+00  0.000E+00  0.000E+00  0.000E+00  1.07555E+03  1.909E+00  9.636E+00  7.227E-02  1.955E+00
   1    3    6     3     2    1.7175E+00  2.4905E-01   1.4684E+00  0.000E+00  0.000E+00  0.000E+00  1.07264E+03  1.727E+00  8.909E+00  6.682E-02  1.864E+00
   1    3    7     3     3    1.4684E+00  1.9718E-01   1.2712E+00  0.000E+00  0.000E+00  0.000E+00  1.06987E+03  1.555E+00  8.218E+00  5.547E-02  1.777E+00
   1    4    8     3     4    1.2712E+00  2.2567E-01   1.0456E+00  0.000E+00  0.000E+00  0.000E+00  1.06682E+03  1.364E+00  7.455E+00  6.709E-02  1.682E+00
   1    5    8     3     5    1.0456E+00  1.5790E-01   8.8768E-01  0.000E+00  0.000E+00  0.000E+00  1.06362E+03  1.164E+00  6.655E+00  4.991E-02  1.582E+00
   1    6    8     3     6    8.8768E-01  5.5980E-02   8.3170E-01  0.000E+00  0.000E+00  0.000E+00  1.06158E+03  1.036E+00  6.145E+00  1.844E-02  1.518E+00
   1    5   10     4     1    1.0000E+01  9.0919E-02   9.9091E+00  0.000E+00  0.000E+00  0.000E+00  1.07836E+03  6.368E-01  1.000E+01  2.500E-02  1.212E+00
   1    5    9     4     2    9.9091E+00  1.8158E-01   9.7275E+00  0.000E+00  0.000E+00  0.000E+00  1.07154E+03  6.315E-01  1.000E+01  5.000E-02  1.211E+00
   1    6    8     4     3    9.7275E+00  1.2689E-01   9.6006E+00  0.000E+00  0.000E+00  0.000E+00  1.06381E+03  6.256E-01  1.000E+01  3.500E-02  1.209E+00
   1    6    8     5     1    1.0432E+01  2.2686E-01   1.0205E+01  0.000E+00  0.000E+00  0.000E+00  1.05868E+03  6.790E-01  1.542E+01  6.166E-02  1.226E+00
   1    7    7     5     2    1.0205E+01  2.7894E-01   9.9265E+00  0.000E+00  0.000E+00  0.000E+00  1.05417E+03  6.732E-01  1.519E+01  7.594E-02  1.224E+00
   1    8    7     5     3    9.9265E+00  1.9221E-01   9.7343E+00  0.000E+00  0.000E+00  0.000E+00  1.04992E+03  6.676E-01  1.497E+01  5.241E-02  1.223E+00
   1    8    6     5     4    9.7343E+00  1.3577E-01   9.5985E+00  0.000E+00  0.000E+00  0.000E+00  1.04691E+03  6.637E-01  1.482E+01  3.706E-02  1.221E+00
   1    9    6     6     1    3.2957E+01  2.6627E-01   3.2691E+01  0.000E+00  0.000E+00  0.000E+00  1.04417E+03  1.438E+00  1.200E+01  6.000E-02  1.479E+00
   1   10    7     6     2    3.2691E+01  2.6584E-01   3.2425E+01  0.000E+00  0.000E+00  0.000E+00  1.03961E+03  1.431E+00  1.200E+01  6.000E-02  1.477E+00
   1   11    7     6     3    3.2425E+01  2.6542E-01   3.2159E+01  0.000E+00  0.000E+00  0.000E+00  1.03506E+03  1.424E+00  1.200E+01  6.000E-02  1.475E+00
   1   12    7     6     4    3.2159E+01  2.6500E-01   3.1894E+01  0.000E+00  0.000E+00  0.000E+00  1.03051E+03  1.417E+00  1.200E+01  6.000E-02  1.472E+00
   1   13    7     6     5    3.1894E+01  3.4885E-03   3.1891E+01  0.000E+00  0.000E+00  0.000E+00  1.02732E+03  1.413E+00  1.200E+01  2.400E-02  4.845E-02
   1   14    9     7     1    1.5000E+02  1.3316E+00   1.4867E+02  0.000E+00  0.000E+00  0.000E+00  1.03987E+03  2.288E+00  5.529E+01  5.593E-01  7.936E-01
   1   13    8     7     2    1.4867E+02  1.8143E+00   1.4685E+02  0.000E+00  0.000E+00  0.000E+00  1.03478E+03  2.279E+00  5.526E+01  6.148E-01  9.837E-01
   1   13    7     7     3    1.4685E+02  1.4036E+00   1.4545E+02  0.000E+00  0.000E+00  0.000E+00  1.02969E+03  2.271E+00  5.522E+01  5.585E-01  8.378E-01
   1   13    6     8     1    1.7734E+02  8.5687E-01   1.7648E+02  0.000E+00  0.000E+00  0.000E+00  1.02487E+03  2.997E+00  4.345E+01  4.428E-01  6.451E-01
   1   13    5     8     2    1.7648E+02  9.2469E-02   1.7639E+02  0.000E+00  0.000E+00  0.000E+00  1.01862E+03  2.994E+00  4.341E+01  4.423E-01  6.968E-02
   1   13    4     8     3    1.7639E+02 -3.1829E+00   1.7957E+02  0.000E+00  0.000E+00  0.000E+00  1.01238E+03  3.003E+00  4.355E+01  4.438E+00 -2.391E-01
   1   13    3     8     4    1.7957E+02 -4.2868E+00   1.8386E+02  0.000E+00  0.000E+00  0.000E+00  1.00615E+03  3.027E+00  4.389E+01  4.473E+00 -3.195E-01
   1   13    2     8     5    1.8386E+02 -3.2456E+00   1.8711E+02  0.000E+00  0.000E+00  0.000E+00  9.99925E+02  3.050E+00  4.423E+01  4.507E+00 -2.400E-01
   1   13    1     8     6    1.8711E+02 -2.3492E+00   1.8946E+02  0.000E+00  0.000E+00  0.000E+00  9.94943E+02  3.067E+00  4.448E+01  2.720E+00 -2.879E-01



 UBDSV3 SAVING "           GW ET" ON UNIT  61 AT TIME STEP  3, STRESS PERIOD   5
 UBDSV3 SAVING "    UZF RECHARGE" ON UNIT  61 AT TIME STEP  3, STRESS PERIOD   5
 UBDSV3 SAVING " SURFACE LEAKAGE" ON UNIT  61 AT TIME STEP  3, STRESS PERIOD   5
 UBDSV3 SAVING "       HORT+DUNN" ON UNIT  61 AT TIME STEP  3, STRESS PERIOD   5
 UBDSV3 SAVING "  STORAGE CHANGE" ON UNIT  61 AT TIME STEP  3, STRESS PERIOD   5


UNSATURATED ZONE PACKAGE VOLUMETRIC BUDGET FOR  TIME STEP     3 STRESS PERIOD    5
  ------------------------------------------------------------------------------



     CUMULATIVE VOLUMES      L**3       RATES FOR THIS TIME STEP      L**3/T
     ------------------                 ------------------------

           IN:                                      IN:
           ---                                      ---
        INFILTRATION =     7961343.2387          INFILTRATION =           4.5675

          OUT:                                     OUT:
          ----                                     ----
              UZF ET =     7887442.0908                UZF ET =           4.5675
        UZF RECHARGE =       73224.0000          UZF RECHARGE =       0.0000E+00

            IN - OUT =         677.1479              IN - OUT =       0.0000E+00

          STORAGE:                                 STORAGE:
          --------                                 --------
      STORAGE CHANGE =         677.2276        STORAGE CHANGE =       4.1691E-09

 PERCENT DISCREPANCY IS DIFFERENCE BETWEEN IN-OUT MINUS CHANGE IN STORAGE
 DIVIDED BY THE AVERAGE OF IN AND OUT TIMES 100

 PERCENT DISCREPANCY =          -0.00     PERCENT DISCREPANCY =           0.00






 

            AG WELLS      PERIOD    5   STEP   3
 AG WELL      1   LAYER   1   ROW     6   COL     4   RATE   -0.620000    
 AG WELL      2   LAYER   1   ROW     6   COL     5   RATE   -0.620000    
 AG WELL      3   LAYER   1   ROW     7   COL     4   RATE   -0.620000    
 AG WELL      4   LAYER   1   ROW     7   COL     5   RATE   -0.620000    
 AG WELL      5   LAYER   1   ROW     8   COL     4   RATE   -0.620000    
 AG WELL      6   LAYER   1   ROW     8   COL     5   RATE   -0.620000    
 
 

        GW IRRIGATION     PERIOD    5   STEP   3
 AG WELL      1   ROW     6   COL     4   RATE    0.620000    
 AG WELL      2   ROW     6   COL     5   RATE    0.620000    
 AG WELL      3   ROW     7   COL     4   RATE    0.620000    
 AG WELL      4   ROW     7   COL     5   RATE    0.620000    
 AG WELL      5   ROW     8   COL     4   RATE    0.620000    
 AG WELL      6   ROW     8   COL     5   RATE    0.620000    
 
1
  VOLUMETRIC BUDGET FOR AGRICULTURAL FIELDS AT  END OF TIME STEP    3, STRESS PERIOD   5
  ------------------------------------------------------------------------------

     CUMULATIVE VOLUMES      L**3       RATES FOR THIS TIME STEP      L**3/T
     ------------------                 ------------------------

           IN:                                      IN:
           ---                                      ---
               AG WELLS  =      978452.1250                 AG WELLS  =           3.7200
      DIVERSION SEGMENTS =           0.0000        DIVERSION SEGMENTS =           0.0000
           GW IRRIGATION =           0.0000             GW IRRIGATION =           0.0000
           SW IRRIGATION =           0.0000             SW IRRIGATION =           0.0000
        SYSTEM LOSSES GW =           0.0000          SYSTEM LOSSES GW =           0.0000
        SYSTEM LOSSES SW =           0.0000          SYSTEM LOSSES SW =           0.0000

                TOTAL IN =      978452.1250                  TOTAL IN =           3.7200

          OUT:                                     OUT:
          ----                                     ----
               AG WELLS  =           0.0000                 AG WELLS  =           0.0000
      DIVERSION SEGMENTS =           0.0000        DIVERSION SEGMENTS =           0.0000
           GW IRRIGATION =      978452.1250             GW IRRIGATION =           3.7200
           SW IRRIGATION =           0.0000             SW IRRIGATION =           0.0000
        SYSTEM LOSSES GW =           0.0000          SYSTEM LOSSES GW =           0.0000
        SYSTEM LOSSES SW =           0.0000          SYSTEM LOSSES SW =           0.0000

               TOTAL OUT =      978452.1250                 TOTAL OUT =           3.7200

                IN - OUT =           0.0000                  IN - OUT =           0.0000

     PERCENT DISCREPANCY =           0.00         PERCENT DISCREPANCY =           0.00



1
  VOLUMETRIC BUDGET FOR ENTIRE MODEL AT END OF TIME STEP    3, STRESS PERIOD   5
  ------------------------------------------------------------------------------

     CUMULATIVE VOLUMES      L**3       RATES FOR THIS TIME STEP      L**3/T
     ------------------                 ------------------------

           IN:                                      IN:
           ---                                      ---
             STORAGE     =     6141244.0000               STORAGE     =           6.8297
       CONSTANT HEAD     =           0.0000         CONSTANT HEAD     =           0.0000
     HEAD DEP BOUNDS     =     2351700.5000       HEAD DEP BOUNDS     =           0.2855
      STREAM LEAKAGE     =   102026840.0000        STREAM LEAKAGE     =          11.6079
        UZF RECHARGE     =       73223.9531          UZF RECHARGE     =           0.0000
               GW ET     =           0.0000                 GW ET     =           0.0000
     SURFACE LEAKAGE     =           0.0000       SURFACE LEAKAGE     =           0.0000
           AG WELLS      =           0.0000             AG WELLS      =           0.0000

                TOTAL IN =   110593008.0000                  TOTAL IN =          18.7231

          OUT:                                     OUT:
          ----                                     ----
             STORAGE     =    22749990.0000               STORAGE     =           1.3850
       CONSTANT HEAD     =           0.0000         CONSTANT HEAD     =           0.0000
     HEAD DEP BOUNDS     =     2405792.5000       HEAD DEP BOUNDS     =           0.2966
      STREAM LEAKAGE     =    84377792.0000        STREAM LEAKAGE     =          13.0645
        UZF RECHARGE     =           0.0000          UZF RECHARGE     =           0.0000
               GW ET     =       86004.6016                 GW ET     =           0.2555
     SURFACE LEAKAGE     =           0.0000       SURFACE LEAKAGE     =           0.0000
           AG WELLS      =      978452.1250             AG WELLS      =           3.7200

               TOTAL OUT =   110598040.0000                 TOTAL OUT =          18.7216

                IN - OUT =       -5032.0000                  IN - OUT =       1.5697E-03

     PERCENT DISCREPANCY =          -0.00         PERCENT DISCREPANCY =           0.01






         TIME SUMMARY AT END OF TIME STEP    3 IN STRESS PERIOD    5
                    SECONDS     MINUTES      HOURS       DAYS        YEARS
                    -----------------------------------------------------------
   TIME STEP LENGTH  87667.      1461.1      24.352      1.0147     2.77799E-03
 STRESS PERIOD TIME 2.63000E+05  4383.3      73.056      3.0440     8.33397E-03
         TOTAL TIME 8.23939E+06 1.37323E+05  2288.7      95.363     0.26109    
1
 
 SOLVING FOR HEAD 
                                                   Max.-Head-Change                         Max.-Flux-Residual
  Residual-Control   Outer-Iter.   Inner-Iter.     Column Row Layer    Maximum-Head-Change  Column Row Layer    Maximum-Flux-Residual          L2-NORM 
          0                 1           2             4   13     1      -0.1316215646E-01       4   13    1        -0.7705241801E+00      0.1959661352E+01
          0                 2           2             4   13     1       0.1269520993E-02       4   13    1         0.7641229856E-01      0.1936412520E+00
          0                 3           1             4   13     1      -0.8544564812E-04       4   13    1        -0.5287716869E-02      0.1334029187E-01

    ------------------------------------------------
       NWT REQUIRED            3 OUTER ITERATIONS 
       AND A TOTAL OF          5 INNER ITERATIONS.
    ------------------------------------------------

 OUTPUT CONTROL FOR STRESS PERIOD    5   TIME STEP    4
    PRINT BUDGET
    SAVE BUDGET
 UBDSV1 SAVING "         STORAGE" ON UNIT 102 AT TIME STEP  4, STRESS PERIOD   5
 UBDSV2 SAVING "   CONSTANT HEAD" ON UNIT 102 AT TIME STEP  4, STRESS PERIOD   5
 UBDSV1 SAVING "FLOW RIGHT FACE " ON UNIT 102 AT TIME STEP  4, STRESS PERIOD   5
 UBDSV1 SAVING "FLOW FRONT FACE " ON UNIT 102 AT TIME STEP  4, STRESS PERIOD   5

  HEAD DEP BOUNDS   PERIOD    5   STEP     4
 BOUNDARY      1   LAYER   1   ROW    13   COL     1   RATE   -0.296394    
 BOUNDARY      2   LAYER   1   ROW    14   COL     9   RATE    0.285473    



 STREAM LISTING     PERIOD      5   STEP        4

 LAYER ROW COL. STREAM  RCH.  FLOW INTO     FLOW TO   FLOW OUT OF   OVRLND.     DIRECT     STREAM       STREAM     STREAM     STREAM   STREAMBED  STREAMBED
                SEG.NO.  NO.  STRM. RCH.    AQUIFER    STRM. RCH.    RUNOFF     PRECIP       ET          HEAD       DEPTH      WIDTH   CONDCTNC.   GRADIENT

   1    1    1     1     1    2.8000E+01  2.5860E-01   2.7741E+01  0.000E+00  0.000E+00  0.000E+00  1.09427E+03  1.221E+00  1.361E+01  6.126E-02  1.407E+00
   1    2    2     1     2    2.7741E+01  4.0002E-01   2.7341E+01  0.000E+00  0.000E+00  0.000E+00  1.08928E+03  1.217E+00  1.355E+01  9.487E-02  1.406E+00
   1    3    3     1     3    2.7341E+01  3.4070E-01   2.7001E+01  0.000E+00  0.000E+00  0.000E+00  1.08363E+03  1.212E+00  1.348E+01  8.090E-02  1.404E+00
   1    3    4     1     4    2.7001E+01  3.1335E-01   2.6687E+01  0.000E+00  0.000E+00  0.000E+00  1.07861E+03  1.207E+00  1.342E+01  7.448E-02  1.402E+00
   1    4    5     2     1    2.4687E+01  3.2711E-01   2.4360E+01  0.000E+00  0.000E+00  0.000E+00  1.07313E+03  1.194E+00  1.200E+01  7.800E-02  1.398E+00
   1    5    6     2     2    2.4360E+01  2.5111E-01   2.4109E+01  0.000E+00  0.000E+00  0.000E+00  1.06769E+03  1.185E+00  1.200E+01  6.000E-02  1.395E+00
   1    6    6     2     3    2.4109E+01  2.5067E-01   2.3858E+01  0.000E+00  0.000E+00  0.000E+00  1.06297E+03  1.178E+00  1.200E+01  6.000E-02  1.393E+00
   1    7    6     2     4    2.3858E+01  2.5023E-01   2.3608E+01  0.000E+00  0.000E+00  0.000E+00  1.05825E+03  1.170E+00  1.200E+01  6.000E-02  1.390E+00
   1    8    6     2     5    2.3608E+01  2.4978E-01   2.3358E+01  0.000E+00  0.000E+00  0.000E+00  1.05352E+03  1.163E+00  1.200E+01  6.000E-02  1.388E+00
   1    3    5     3     1    2.0000E+00  2.8252E-01   1.7175E+00  0.000E+00  0.000E+00  0.000E+00  1.07555E+03  1.909E+00  9.636E+00  7.227E-02  1.955E+00
   1    3    6     3     2    1.7175E+00  2.4905E-01   1.4684E+00  0.000E+00  0.000E+00  0.000E+00  1.07264E+03  1.727E+00  8.909E+00  6.682E-02  1.864E+00
   1    3    7     3     3    1.4684E+00  1.9718E-01   1.2712E+00  0.000E+00  0.000E+00  0.000E+00  1.06987E+03  1.555E+00  8.218E+00  5.547E-02  1.777E+00
   1    4    8     3     4    1.2712E+00  2.2567E-01   1.0456E+00  0.000E+00  0.000E+00  0.000E+00  1.06682E+03  1.364E+00  7.455E+00  6.709E-02  1.682E+00
   1    5    8     3     5    1.0456E+00  1.5790E-01   8.8768E-01  0.000E+00  0.000E+00  0.000E+00  1.06362E+03  1.164E+00  6.655E+00  4.991E-02  1.582E+00
   1    6    8     3     6    8.8768E-01  5.5980E-02   8.3170E-01  0.000E+00  0.000E+00  0.000E+00  1.06158E+03  1.036E+00  6.145E+00  1.844E-02  1.518E+00
   1    5   10     4     1    1.0000E+01  9.0919E-02   9.9091E+00  0.000E+00  0.000E+00  0.000E+00  1.07836E+03  6.368E-01  1.000E+01  2.500E-02  1.212E+00
   1    5    9     4     2    9.9091E+00  1.8158E-01   9.7275E+00  0.000E+00  0.000E+00  0.000E+00  1.07154E+03  6.315E-01  1.000E+01  5.000E-02  1.211E+00
   1    6    8     4     3    9.7275E+00  1.2689E-01   9.6006E+00  0.000E+00  0.000E+00  0.000E+00  1.06381E+03  6.256E-01  1.000E+01  3.500E-02  1.209E+00
   1    6    8     5     1    1.0432E+01  2.2686E-01   1.0205E+01  0.000E+00  0.000E+00  0.000E+00  1.05868E+03  6.790E-01  1.542E+01  6.166E-02  1.226E+00
   1    7    7     5     2    1.0205E+01  2.7894E-01   9.9265E+00  0.000E+00  0.000E+00  0.000E+00  1.05417E+03  6.732E-01  1.519E+01  7.594E-02  1.224E+00
   1    8    7     5     3    9.9265E+00  1.9221E-01   9.7343E+00  0.000E+00  0.000E+00  0.000E+00  1.04992E+03  6.676E-01  1.497E+01  5.241E-02  1.223E+00
   1    8    6     5     4    9.7343E+00  1.3577E-01   9.5985E+00  0.000E+00  0.000E+00  0.000E+00  1.04691E+03  6.637E-01  1.482E+01  3.706E-02  1.221E+00
   1    9    6     6     1    3.2957E+01  2.6627E-01   3.2691E+01  0.000E+00  0.000E+00  0.000E+00  1.04417E+03  1.438E+00  1.200E+01  6.000E-02  1.479E+00
   1   10    7     6     2    3.2691E+01  2.6584E-01   3.2425E+01  0.000E+00  0.000E+00  0.000E+00  1.03961E+03  1.431E+00  1.200E+01  6.000E-02  1.477E+00
   1   11    7     6     3    3.2425E+01  2.6542E-01   3.2159E+01  0.000E+00  0.000E+00  0.000E+00  1.03506E+03  1.424E+00  1.200E+01  6.000E-02  1.475E+00
   1   12    7     6     4    3.2159E+01  2.6500E-01   3.1894E+01  0.000E+00  0.000E+00  0.000E+00  1.03051E+03  1.417E+00  1.200E+01  6.000E-02  1.472E+00
   1   13    7     6     5    3.1894E+01  3.4784E-03   3.1891E+01  0.000E+00  0.000E+00  0.000E+00  1.02732E+03  1.413E+00  1.200E+01  2.400E-02  4.831E-02
   1   14    9     7     1    1.5000E+02  1.3316E+00   1.4867E+02  0.000E+00  0.000E+00  0.000E+00  1.03987E+03  2.288E+00  5.529E+01  5.593E-01  7.936E-01
   1   13    8     7     2    1.4867E+02  1.8142E+00   1.4685E+02  0.000E+00  0.000E+00  0.000E+00  1.03478E+03  2.279E+00  5.526E+01  6.148E-01  9.836E-01
   1   13    7     7     3    1.4685E+02  1.4033E+00   1.4545E+02  0.000E+00  0.000E+00  0.000E+00  1.02969E+03  2.271E+00  5.522E+01  5.585E-01  8.376E-01
   1   13    6     8     1    1.7734E+02  8.5755E-01   1.7648E+02  0.000E+00  0.000E+00  0.000E+00  1.02487E+03  2.997E+00  4.345E+01  4.428E-01  6.456E-01
   1   13    5     8     2    1.7648E+02  9.2975E-02   1.7639E+02  0.000E+00  0.000E+00  0.000E+00  1.01862E+03  2.994E+00  4.341E+01  4.423E-01  7.006E-02
   1   13    4     8     3    1.7639E+02 -3.1303E+00   1.7952E+02  0.000E+00  0.000E+00  0.000E+00  1.01238E+03  3.003E+00  4.355E+01  4.438E+00 -2.351E-01
   1   13    3     8     4    1.7952E+02 -4.2365E+00   1.8376E+02  0.000E+00  0.000E+00  0.000E+00  1.00615E+03  3.026E+00  4.388E+01  4.472E+00 -3.158E-01
   1   13    2     8     5    1.8376E+02 -3.1972E+00   1.8696E+02  0.000E+00  0.000E+00  0.000E+00  9.99924E+02  3.050E+00  4.422E+01  4.506E+00 -2.365E-01
   1   13    1     8     6    1.8696E+02 -2.3335E+00   1.8929E+02  0.000E+00  0.000E+00  0.000E+00  9.94942E+02  3.067E+00  4.446E+01  2.719E+00 -2.861E-01



 UBDSV3 SAVING "           GW ET" ON UNIT  61 AT TIME STEP  4, STRESS PERIOD   5
 UBDSV3 SAVING "    UZF RECHARGE" ON UNIT  61 AT TIME STEP  4, STRESS PERIOD   5
 UBDSV3 SAVING " SURFACE LEAKAGE" ON UNIT  61 AT TIME STEP  4, STRESS PERIOD   5
 UBDSV3 SAVING "       HORT+DUNN" ON UNIT  61 AT TIME STEP  4, STRESS PERIOD   5
 UBDSV3 SAVING "  STORAGE CHANGE" ON UNIT  61 AT TIME STEP  4, STRESS PERIOD   5


UNSATURATED ZONE PACKAGE VOLUMETRIC BUDGET FOR  TIME STEP     4 STRESS PERIOD    5
  ------------------------------------------------------------------------------



     CUMULATIVE VOLUMES      L**3       RATES FOR THIS TIME STEP      L**3/T
     ------------------                 ------------------------

           IN:                                      IN:
           ---                                      ---
        INFILTRATION =     8361760.7189          INFILTRATION =           4.5675

          OUT:                                     OUT:
          ----                                     ----
              UZF ET =     8287859.5710                UZF ET =           4.5675
        UZF RECHARGE =       73224.0000          UZF RECHARGE =       0.0000E+00

            IN - OUT =         677.1479              IN - OUT =       0.0000E+00

          STORAGE:                                 STORAGE:
          --------                                 --------
      STORAGE CHANGE =         677.2276        STORAGE CHANGE =       1.2048E-12

 PERCENT DISCREPANCY IS DIFFERENCE BETWEEN IN-OUT MINUS CHANGE IN STORAGE
 DIVIDED BY THE AVERAGE OF IN AND OUT TIMES 100

 PERCENT DISCREPANCY =          -0.00     PERCENT DISCREPANCY =           0.00






 

            AG WELLS      PERIOD    5   STEP   4
 AG WELL      1   LAYER   1   ROW     6   COL     4   RATE   -0.620000    
 AG WELL      2   LAYER   1   ROW     6   COL     5   RATE   -0.620000    
 AG WELL      3   LAYER   1   ROW     7   COL     4   RATE   -0.620000    
 AG WELL      4   LAYER   1   ROW     7   COL     5   RATE   -0.620000    
 AG WELL      5   LAYER   1   ROW     8   COL     4   RATE   -0.620000    
 AG WELL      6   LAYER   1   ROW     8   COL     5   RATE   -0.620000    
 
 

        GW IRRIGATION     PERIOD    5   STEP   4
 AG WELL      1   ROW     6   COL     4   RATE    0.620000    
 AG WELL      2   ROW     6   COL     5   RATE    0.620000    
 AG WELL      3   ROW     7   COL     4   RATE    0.620000    
 AG WELL      4   ROW     7   COL     5   RATE    0.620000    
 AG WELL      5   ROW     8   COL     4   RATE    0.620000    
 AG WELL      6   ROW     8   COL     5   RATE    0.620000    
 
1
  VOLUMETRIC BUDGET FOR AGRICULTURAL FIELDS AT  END OF TIME STEP    4, STRESS PERIOD   5
  ------------------------------------------------------------------------------

     CUMULATIVE VOLUMES      L**3       RATES FOR THIS TIME STEP      L**3/T
     ------------------                 ------------------------

           IN:                                      IN:
           ---                                      ---
               AG WELLS  =     1304572.1250                 AG WELLS  =           3.7200
      DIVERSION SEGMENTS =           0.0000        DIVERSION SEGMENTS =           0.0000
           GW IRRIGATION =           0.0000             GW IRRIGATION =           0.0000
           SW IRRIGATION =           0.0000             SW IRRIGATION =           0.0000
        SYSTEM LOSSES GW =           0.0000          SYSTEM LOSSES GW =           0.0000
        SYSTEM LOSSES SW =           0.0000          SYSTEM LOSSES SW =           0.0000

                TOTAL IN =     1304572.1250                  TOTAL IN =           3.7200

          OUT:                                     OUT:
          ----                                     ----
               AG WELLS  =           0.0000                 AG WELLS  =           0.0000
      DIVERSION SEGMENTS =           0.0000        DIVERSION SEGMENTS =           0.0000
           GW IRRIGATION =     1304572.1250             GW IRRIGATION =           3.7200
           SW IRRIGATION =           0.0000             SW IRRIGATION =           0.0000
        SYSTEM LOSSES GW =           0.0000          SYSTEM LOSSES GW =           0.0000
        SYSTEM LOSSES SW =           0.0000          SYSTEM LOSSES SW =           0.0000

               TOTAL OUT =     1304572.1250                 TOTAL OUT =           3.7200

                IN - OUT =           0.0000                  IN - OUT =           0.0000

     PERCENT DISCREPANCY =           0.00         PERCENT DISCREPANCY =           0.00



1
  VOLUMETRIC BUDGET FOR ENTIRE MODEL AT END OF TIME STEP    4, STRESS PERIOD   5
  ------------------------------------------------------------------------------

     CUMULATIVE VOLUMES      L**3       RATES FOR THIS TIME STEP      L**3/T
     ------------------                 ------------------------

           IN:                                      IN:
           ---                                      ---
             STORAGE     =     6717844.5000               STORAGE     =           6.5772
       CONSTANT HEAD     =           0.0000         CONSTANT HEAD     =           0.0000
     HEAD DEP BOUNDS     =     2376727.0000       HEAD DEP BOUNDS     =           0.2855
      STREAM LEAKAGE     =   103044536.0000        STREAM LEAKAGE     =          11.6087
        UZF RECHARGE     =       73223.9531          UZF RECHARGE     =           0.0000
               GW ET     =           0.0000                 GW ET     =           0.0000
     SURFACE LEAKAGE     =           0.0000       SURFACE LEAKAGE     =           0.0000
           AG WELLS      =           0.0000             AG WELLS      =           0.0000

                TOTAL IN =   112212328.0000                  TOTAL IN =          18.4714

          OUT:                                     OUT:
          ----                                     ----
             STORAGE     =    22866556.0000               STORAGE     =           1.3297
       CONSTANT HEAD     =           0.0000         CONSTANT HEAD     =           0.0000
     HEAD DEP BOUNDS     =     2431776.2500       HEAD DEP BOUNDS     =           0.2964
      STREAM LEAKAGE     =    85508472.0000        STREAM LEAKAGE     =          12.8975
        UZF RECHARGE     =           0.0000          UZF RECHARGE     =           0.0000
               GW ET     =      105841.6641                 GW ET     =           0.2263
     SURFACE LEAKAGE     =           0.0000       SURFACE LEAKAGE     =           0.0000
           AG WELLS      =     1304572.1250             AG WELLS      =           3.7200

               TOTAL OUT =   112217216.0000                 TOTAL OUT =          18.4699

                IN - OUT =       -4888.0000                  IN - OUT =       1.5125E-03

     PERCENT DISCREPANCY =          -0.00         PERCENT DISCREPANCY =           0.01






         TIME SUMMARY AT END OF TIME STEP    4 IN STRESS PERIOD    5
                    SECONDS     MINUTES      HOURS       DAYS        YEARS
                    -----------------------------------------------------------
   TIME STEP LENGTH  87667.      1461.1      24.352      1.0147     2.77799E-03
 STRESS PERIOD TIME 3.50667E+05  5844.4      97.407      4.0586     1.11120E-02
         TOTAL TIME 8.32706E+06 1.38784E+05  2313.1      96.378     0.26387    
1
 
 SOLVING FOR HEAD 
                                                   Max.-Head-Change                         Max.-Flux-Residual
  Residual-Control   Outer-Iter.   Inner-Iter.     Column Row Layer    Maximum-Head-Change  Column Row Layer    Maximum-Flux-Residual          L2-NORM 
          0                 1           2             4   13     1      -0.1168955197E-01       4   13    1        -0.6840156888E+00      0.1860399454E+01
          0                 2           2             4   13     1       0.1127404916E-02       4   13    1         0.6782840292E-01      0.1840035427E+00
          0                 3           1             4   13     1      -0.7586447956E-04       4   13    1        -0.4692710137E-02      0.1269144948E-01

    ------------------------------------------------
       NWT REQUIRED            3 OUTER ITERATIONS 
       AND A TOTAL OF          5 INNER ITERATIONS.
    ------------------------------------------------

 NO OUTPUT CONTROL FOR STRESS PERIOD    5   TIME STEP    5
 
 SOLVING FOR HEAD 
                                                   Max.-Head-Change                         Max.-Flux-Residual
  Residual-Control   Outer-Iter.   Inner-Iter.     Column Row Layer    Maximum-Head-Change  Column Row Layer    Maximum-Flux-Residual          L2-NORM 
          0                 1           2             4    7     1      -0.1132875356E-01       4   13    1        -0.6074879610E+00      0.1773007981E+01
          0                 2           2             4    7     1       0.1101976315E-02       4   13    1         0.6023479519E-01      0.1755211070E+00
          0                 3           1             4    7     1      -0.7504052595E-04       4   13    1        -0.4166690002E-02      0.1212162860E-01

    ------------------------------------------------
       NWT REQUIRED            3 OUTER ITERATIONS 
       AND A TOTAL OF          5 INNER ITERATIONS.
    ------------------------------------------------

 OUTPUT CONTROL FOR STRESS PERIOD    5   TIME STEP    6
    PRINT BUDGET
    SAVE BUDGET
 UBDSV1 SAVING "         STORAGE" ON UNIT 102 AT TIME STEP  6, STRESS PERIOD   5
 UBDSV2 SAVING "   CONSTANT HEAD" ON UNIT 102 AT TIME STEP  6, STRESS PERIOD   5
 UBDSV1 SAVING "FLOW RIGHT FACE " ON UNIT 102 AT TIME STEP  6, STRESS PERIOD   5
 UBDSV1 SAVING "FLOW FRONT FACE " ON UNIT 102 AT TIME STEP  6, STRESS PERIOD   5

  HEAD DEP BOUNDS   PERIOD    5   STEP     6
 BOUNDARY      1   LAYER   1   ROW    13   COL     1   RATE   -0.295931    
 BOUNDARY      2   LAYER   1   ROW    14   COL     9   RATE    0.285474    



 STREAM LISTING     PERIOD      5   STEP        6

 LAYER ROW COL. STREAM  RCH.  FLOW INTO     FLOW TO   FLOW OUT OF   OVRLND.     DIRECT     STREAM       STREAM     STREAM     STREAM   STREAMBED  STREAMBED
                SEG.NO.  NO.  STRM. RCH.    AQUIFER    STRM. RCH.    RUNOFF     PRECIP       ET          HEAD       DEPTH      WIDTH   CONDCTNC.   GRADIENT

   1    1    1     1     1    2.8000E+01  2.5860E-01   2.7742E+01  0.000E+00  0.000E+00  0.000E+00  1.09427E+03  1.221E+00  1.361E+01  6.126E-02  1.407E+00
   1    2    2     1     2    2.7742E+01  4.0002E-01   2.7341E+01  0.000E+00  0.000E+00  0.000E+00  1.08928E+03  1.217E+00  1.355E+01  9.487E-02  1.406E+00
   1    3    3     1     3    2.7341E+01  3.4070E-01   2.7001E+01  0.000E+00  0.000E+00  0.000E+00  1.08363E+03  1.212E+00  1.348E+01  8.090E-02  1.404E+00
   1    3    4     1     4    2.7001E+01  3.1335E-01   2.6687E+01  0.000E+00  0.000E+00  0.000E+00  1.07861E+03  1.207E+00  1.342E+01  7.448E-02  1.402E+00
   1    4    5     2     1    2.4687E+01  3.2711E-01   2.4360E+01  0.000E+00  0.000E+00  0.000E+00  1.07313E+03  1.194E+00  1.200E+01  7.800E-02  1.398E+00
   1    5    6     2     2    2.4360E+01  2.5111E-01   2.4109E+01  0.000E+00  0.000E+00  0.000E+00  1.06769E+03  1.185E+00  1.200E+01  6.000E-02  1.395E+00
   1    6    6     2     3    2.4109E+01  2.5067E-01   2.3859E+01  0.000E+00  0.000E+00  0.000E+00  1.06297E+03  1.178E+00  1.200E+01  6.000E-02  1.393E+00
   1    7    6     2     4    2.3859E+01  2.5023E-01   2.3608E+01  0.000E+00  0.000E+00  0.000E+00  1.05825E+03  1.170E+00  1.200E+01  6.000E-02  1.390E+00
   1    8    6     2     5    2.3608E+01  2.4978E-01   2.3359E+01  0.000E+00  0.000E+00  0.000E+00  1.05352E+03  1.163E+00  1.200E+01  6.000E-02  1.388E+00
   1    3    5     3     1    2.0000E+00  2.8252E-01   1.7175E+00  0.000E+00  0.000E+00  0.000E+00  1.07555E+03  1.909E+00  9.636E+00  7.227E-02  1.955E+00
   1    3    6     3     2    1.7175E+00  2.4905E-01   1.4684E+00  0.000E+00  0.000E+00  0.000E+00  1.07264E+03  1.727E+00  8.909E+00  6.682E-02  1.864E+00
   1    3    7     3     3    1.4684E+00  1.9718E-01   1.2712E+00  0.000E+00  0.000E+00  0.000E+00  1.06987E+03  1.555E+00  8.218E+00  5.547E-02  1.777E+00
   1    4    8     3     4    1.2712E+00  2.2567E-01   1.0456E+00  0.000E+00  0.000E+00  0.000E+00  1.06682E+03  1.364E+00  7.455E+00  6.709E-02  1.682E+00
   1    5    8     3     5    1.0456E+00  1.5790E-01   8.8768E-01  0.000E+00  0.000E+00  0.000E+00  1.06362E+03  1.164E+00  6.655E+00  4.991E-02  1.582E+00
   1    6    8     3     6    8.8768E-01  5.5980E-02   8.3170E-01  0.000E+00  0.000E+00  0.000E+00  1.06158E+03  1.036E+00  6.145E+00  1.844E-02  1.518E+00
   1    5   10     4     1    1.0000E+01  9.0919E-02   9.9091E+00  0.000E+00  0.000E+00  0.000E+00  1.07836E+03  6.368E-01  1.000E+01  2.500E-02  1.212E+00
   1    5    9     4     2    9.9091E+00  1.8158E-01   9.7275E+00  0.000E+00  0.000E+00  0.000E+00  1.07154E+03  6.315E-01  1.000E+01  5.000E-02  1.211E+00
   1    6    8     4     3    9.7275E+00  1.2689E-01   9.6006E+00  0.000E+00  0.000E+00  0.000E+00  1.06381E+03  6.256E-01  1.000E+01  3.500E-02  1.209E+00
   1    6    8     5     1    1.0432E+01  2.2686E-01   1.0205E+01  0.000E+00  0.000E+00  0.000E+00  1.05868E+03  6.790E-01  1.542E+01  6.166E-02  1.226E+00
   1    7    7     5     2    1.0205E+01  2.7894E-01   9.9265E+00  0.000E+00  0.000E+00  0.000E+00  1.05417E+03  6.732E-01  1.519E+01  7.594E-02  1.224E+00
   1    8    7     5     3    9.9265E+00  1.9221E-01   9.7343E+00  0.000E+00  0.000E+00  0.000E+00  1.04992E+03  6.676E-01  1.497E+01  5.241E-02  1.223E+00
   1    8    6     5     4    9.7343E+00  1.3577E-01   9.5985E+00  0.000E+00  0.000E+00  0.000E+00  1.04691E+03  6.637E-01  1.482E+01  3.706E-02  1.221E+00
   1    9    6     6     1    3.2957E+01  2.6627E-01   3.2691E+01  0.000E+00  0.000E+00  0.000E+00  1.04417E+03  1.438E+00  1.200E+01  6.000E-02  1.479E+00
   1   10    7     6     2    3.2691E+01  2.6585E-01   3.2425E+01  0.000E+00  0.000E+00  0.000E+00  1.03961E+03  1.431E+00  1.200E+01  6.000E-02  1.477E+00
   1   11    7     6     3    3.2425E+01  2.6542E-01   3.2160E+01  0.000E+00  0.000E+00  0.000E+00  1.03506E+03  1.424E+00  1.200E+01  6.000E-02  1.475E+00
   1   12    7     6     4    3.2160E+01  2.6500E-01   3.1895E+01  0.000E+00  0.000E+00  0.000E+00  1.03051E+03  1.417E+00  1.200E+01  6.000E-02  1.472E+00
   1   13    7     6     5    3.1895E+01  3.4601E-03   3.1891E+01  0.000E+00  0.000E+00  0.000E+00  1.02732E+03  1.413E+00  1.200E+01  2.400E-02  4.806E-02
   1   14    9     7     1    1.5000E+02  1.3316E+00   1.4867E+02  0.000E+00  0.000E+00  0.000E+00  1.03987E+03  2.288E+00  5.529E+01  5.593E-01  7.936E-01
   1   13    8     7     2    1.4867E+02  1.8139E+00   1.4685E+02  0.000E+00  0.000E+00  0.000E+00  1.03478E+03  2.279E+00  5.526E+01  6.148E-01  9.835E-01
   1   13    7     7     3    1.4685E+02  1.4029E+00   1.4545E+02  0.000E+00  0.000E+00  0.000E+00  1.02969E+03  2.271E+00  5.522E+01  5.585E-01  8.374E-01
   1   13    6     8     1    1.7734E+02  8.5882E-01   1.7648E+02  0.000E+00  0.000E+00  0.000E+00  1.02487E+03  2.997E+00  4.345E+01  4.428E-01  6.465E-01
   1   13    5     8     2    1.7648E+02  9.4080E-02   1.7639E+02  0.000E+00  0.000E+00  0.000E+00  1.01862E+03  2.994E+00  4.341E+01  4.423E-01  7.090E-02
   1   13    4     8     3    1.7639E+02 -3.0421E+00   1.7943E+02  0.000E+00  0.000E+00  0.000E+00  1.01238E+03  3.003E+00  4.354E+01  4.437E+00 -2.285E-01
   1   13    3     8     4    1.7943E+02 -4.1504E+00   1.8358E+02  0.000E+00  0.000E+00  0.000E+00  1.00615E+03  3.026E+00  4.387E+01  4.471E+00 -3.095E-01
   1   13    2     8     5    1.8358E+02 -3.1109E+00   1.8669E+02  0.000E+00  0.000E+00  0.000E+00  9.99923E+02  3.048E+00  4.420E+01  4.504E+00 -2.302E-01
   1   13    1     8     6    1.8669E+02 -2.3037E+00   1.8900E+02  0.000E+00  0.000E+00  0.000E+00  9.94940E+02  3.065E+00  4.444E+01  2.717E+00 -2.826E-01



 UBDSV3 SAVING "           GW ET" ON UNIT  61 AT TIME STEP  6, STRESS PERIOD   5
 UBDSV3 SAVING "    UZF RECHARGE" ON UNIT  61 AT TIME STEP  6, STRESS PERIOD   5
 UBDSV3 SAVING " SURFACE LEAKAGE" ON UNIT  61 AT TIME STEP  6, STRESS PERIOD   5
 UBDSV3 SAVING "       HORT+DUNN" ON UNIT  61 AT TIME STEP  6, STRESS PERIOD   5
 UBDSV3 SAVING "  STORAGE CHANGE" ON UNIT  61 AT TIME STEP  6, STRESS PERIOD   5


UNSATURATED ZONE PACKAGE VOLUMETRIC BUDGET FOR  TIME STEP     6 STRESS PERIOD    5
  ------------------------------------------------------------------------------



     CUMULATIVE VOLUMES      L**3       RATES FOR THIS TIME STEP      L**3/T
     ------------------                 ------------------------

           IN:                                      IN:
           ---                                      ---
        INFILTRATION =     9162595.6794          INFILTRATION =           4.5675

          OUT:                                     OUT:
          ----                                     ----
              UZF ET =     9088694.5315                UZF ET =           4.5675
        UZF RECHARGE =       73224.0000          UZF RECHARGE =       0.0000E+00

            IN - OUT =         677.1479              IN - OUT =       0.0000E+00

          STORAGE:                                 STORAGE:
          --------                                 --------
      STORAGE CHANGE =         677.2276        STORAGE CHANGE =       8.4380E-15

 PERCENT DISCREPANCY IS DIFFERENCE BETWEEN IN-OUT MINUS CHANGE IN STORAGE
 DIVIDED BY THE AVERAGE OF IN AND OUT TIMES 100

 PERCENT DISCREPANCY =           0.00     PERCENT DISCREPANCY =           0.00






 

            AG WELLS      PERIOD    5   STEP   6
 AG WELL      1   LAYER   1   ROW     6   COL     4   RATE   -0.620000    
 AG WELL      2   LAYER   1   ROW     6   COL     5   RATE   -0.620000    
 AG WELL      3   LAYER   1   ROW     7   COL     4   RATE   -0.620000    
 AG WELL      4   LAYER   1   ROW     7   COL     5   RATE   -0.620000    
 AG WELL      5   LAYER   1   ROW     8   COL     4   RATE   -0.620000    
 AG WELL      6   LAYER   1   ROW     8   COL     5   RATE   -0.620000    
 
 

        GW IRRIGATION     PERIOD    5   STEP   6
 AG WELL      1   ROW     6   COL     4   RATE    0.620000    
 AG WELL      2   ROW     6   COL     5   RATE    0.620000    
 AG WELL      3   ROW     7   COL     4   RATE    0.620000    
 AG WELL      4   ROW     7   COL     5   RATE    0.620000    
 AG WELL      5   ROW     8   COL     4   RATE    0.620000    
 AG WELL      6   ROW     8   COL     5   RATE    0.620000    
 
1
  VOLUMETRIC BUDGET FOR AGRICULTURAL FIELDS AT  END OF TIME STEP    6, STRESS PERIOD   5
  ------------------------------------------------------------------------------

     CUMULATIVE VOLUMES      L**3       RATES FOR THIS TIME STEP      L**3/T
     ------------------                 ------------------------

           IN:                                      IN:
           ---                                      ---
               AG WELLS  =     1956812.1250                 AG WELLS  =           3.7200
      DIVERSION SEGMENTS =           0.0000        DIVERSION SEGMENTS =           0.0000
           GW IRRIGATION =           0.0000             GW IRRIGATION =           0.0000
           SW IRRIGATION =           0.0000             SW IRRIGATION =           0.0000
        SYSTEM LOSSES GW =           0.0000          SYSTEM LOSSES GW =           0.0000
        SYSTEM LOSSES SW =           0.0000          SYSTEM LOSSES SW =           0.0000

                TOTAL IN =     1956812.1250                  TOTAL IN =           3.7200

          OUT:                                     OUT:
          ----                                     ----
               AG WELLS  =           0.0000                 AG WELLS  =           0.0000
      DIVERSION SEGMENTS =           0.0000        DIVERSION SEGMENTS =           0.0000
           GW IRRIGATION =     1956812.1250             GW IRRIGATION =           3.7200
           SW IRRIGATION =           0.0000             SW IRRIGATION =           0.0000
        SYSTEM LOSSES GW =           0.0000          SYSTEM LOSSES GW =           0.0000
        SYSTEM LOSSES SW =           0.0000          SYSTEM LOSSES SW =           0.0000

               TOTAL OUT =     1956812.1250                 TOTAL OUT =           3.7200

                IN - OUT =           0.0000                  IN - OUT =           0.0000

     PERCENT DISCREPANCY =           0.00         PERCENT DISCREPANCY =           0.00



1
  VOLUMETRIC BUDGET FOR ENTIRE MODEL AT END OF TIME STEP    6, STRESS PERIOD   5
  ------------------------------------------------------------------------------

     CUMULATIVE VOLUMES      L**3       RATES FOR THIS TIME STEP      L**3/T
     ------------------                 ------------------------

           IN:                                      IN:
           ---                                      ---
             STORAGE     =     7815116.0000               STORAGE     =           6.1593
       CONSTANT HEAD     =           0.0000         CONSTANT HEAD     =           0.0000
     HEAD DEP BOUNDS     =     2426780.0000       HEAD DEP BOUNDS     =           0.2855
      STREAM LEAKAGE     =   105080144.0000        STREAM LEAKAGE     =          11.6104
        UZF RECHARGE     =       73223.9531          UZF RECHARGE     =           0.0000
               GW ET     =           0.0000                 GW ET     =           0.0000
     SURFACE LEAKAGE     =           0.0000       SURFACE LEAKAGE     =           0.0000
           AG WELLS      =           0.0000             AG WELLS      =           0.0000

                TOTAL IN =   115395264.0000                  TOTAL IN =          18.0551

          OUT:                                     OUT:
          ----                                     ----
             STORAGE     =    23089462.0000               STORAGE     =           1.2539
       CONSTANT HEAD     =           0.0000         CONSTANT HEAD     =           0.0000
     HEAD DEP BOUNDS     =     2483682.7500       HEAD DEP BOUNDS     =           0.2959
      STREAM LEAKAGE     =    87731056.0000        STREAM LEAKAGE     =          12.6071
        UZF RECHARGE     =           0.0000          UZF RECHARGE     =           0.0000
               GW ET     =      138885.9219                 GW ET     =           0.1768
     SURFACE LEAKAGE     =           0.0000       SURFACE LEAKAGE     =           0.0000
           AG WELLS      =     1956812.1250             AG WELLS      =           3.7200

               TOTAL OUT =   115399904.0000                 TOTAL OUT =          18.0537

                IN - OUT =       -4640.0000                  IN - OUT =       1.4153E-03

     PERCENT DISCREPANCY =          -0.00         PERCENT DISCREPANCY =           0.01






         TIME SUMMARY AT END OF TIME STEP    6 IN STRESS PERIOD    5
                    SECONDS     MINUTES      HOURS       DAYS        YEARS
                    -----------------------------------------------------------
   TIME STEP LENGTH  87667.      1461.1      24.352      1.0147     2.77799E-03
 STRESS PERIOD TIME 5.26000E+05  8766.7      146.11      6.0880     1.66679E-02
         TOTAL TIME 8.50239E+06 1.41707E+05  2361.8      98.407     0.26942    
1
 
 SOLVING FOR HEAD 
                                                   Max.-Head-Change                         Max.-Flux-Residual
  Residual-Control   Outer-Iter.   Inner-Iter.     Column Row Layer    Maximum-Head-Change  Column Row Layer    Maximum-Flux-Residual          L2-NORM 
          0                 1           2             4    7     1      -0.1123805205E-01       4    7    1        -0.5886323293E+00      0.1695955470E+01
          0                 2           2             4    7     1       0.1088826121E-02       4    7    1         0.5858708379E-01      0.1679525297E+00
          0                 3           1             4    7     1      -0.7414503665E-04       4    7    1        -0.4101098500E-02      0.1161306737E-01

    ------------------------------------------------
       NWT REQUIRED            3 OUTER ITERATIONS 
       AND A TOTAL OF          5 INNER ITERATIONS.
    ------------------------------------------------

 OUTPUT CONTROL FOR STRESS PERIOD    5   TIME STEP    7
    PRINT BUDGET
    SAVE BUDGET
 UBDSV1 SAVING "         STORAGE" ON UNIT 102 AT TIME STEP  7, STRESS PERIOD   5
 UBDSV2 SAVING "   CONSTANT HEAD" ON UNIT 102 AT TIME STEP  7, STRESS PERIOD   5
 UBDSV1 SAVING "FLOW RIGHT FACE " ON UNIT 102 AT TIME STEP  7, STRESS PERIOD   5
 UBDSV1 SAVING "FLOW FRONT FACE " ON UNIT 102 AT TIME STEP  7, STRESS PERIOD   5

  HEAD DEP BOUNDS   PERIOD    5   STEP     7
 BOUNDARY      1   LAYER   1   ROW    13   COL     1   RATE   -0.295713    
 BOUNDARY      2   LAYER   1   ROW    14   COL     9   RATE    0.285475    



 STREAM LISTING     PERIOD      5   STEP        7

 LAYER ROW COL. STREAM  RCH.  FLOW INTO     FLOW TO   FLOW OUT OF   OVRLND.     DIRECT     STREAM       STREAM     STREAM     STREAM   STREAMBED  STREAMBED
                SEG.NO.  NO.  STRM. RCH.    AQUIFER    STRM. RCH.    RUNOFF     PRECIP       ET          HEAD       DEPTH      WIDTH   CONDCTNC.   GRADIENT

   1    1    1     1     1    2.8000E+01  2.5860E-01   2.7742E+01  0.000E+00  0.000E+00  0.000E+00  1.09427E+03  1.221E+00  1.361E+01  6.126E-02  1.407E+00
   1    2    2     1     2    2.7742E+01  4.0002E-01   2.7341E+01  0.000E+00  0.000E+00  0.000E+00  1.08928E+03  1.217E+00  1.355E+01  9.487E-02  1.406E+00
   1    3    3     1     3    2.7341E+01  3.4070E-01   2.7001E+01  0.000E+00  0.000E+00  0.000E+00  1.08363E+03  1.212E+00  1.348E+01  8.090E-02  1.404E+00
   1    3    4     1     4    2.7001E+01  3.1335E-01   2.6687E+01  0.000E+00  0.000E+00  0.000E+00  1.07861E+03  1.207E+00  1.342E+01  7.448E-02  1.402E+00
   1    4    5     2     1    2.4687E+01  3.2711E-01   2.4360E+01  0.000E+00  0.000E+00  0.000E+00  1.07313E+03  1.194E+00  1.200E+01  7.800E-02  1.398E+00
   1    5    6     2     2    2.4360E+01  2.5111E-01   2.4109E+01  0.000E+00  0.000E+00  0.000E+00  1.06769E+03  1.185E+00  1.200E+01  6.000E-02  1.395E+00
   1    6    6     2     3    2.4109E+01  2.5067E-01   2.3859E+01  0.000E+00  0.000E+00  0.000E+00  1.06297E+03  1.178E+00  1.200E+01  6.000E-02  1.393E+00
   1    7    6     2     4    2.3859E+01  2.5023E-01   2.3608E+01  0.000E+00  0.000E+00  0.000E+00  1.05825E+03  1.170E+00  1.200E+01  6.000E-02  1.390E+00
   1    8    6     2     5    2.3608E+01  2.4978E-01   2.3359E+01  0.000E+00  0.000E+00  0.000E+00  1.05352E+03  1.163E+00  1.200E+01  6.000E-02  1.388E+00
   1    3    5     3     1    2.0000E+00  2.8252E-01   1.7175E+00  0.000E+00  0.000E+00  0.000E+00  1.07555E+03  1.909E+00  9.636E+00  7.227E-02  1.955E+00
   1    3    6     3     2    1.7175E+00  2.4905E-01   1.4684E+00  0.000E+00  0.000E+00  0.000E+00  1.07264E+03  1.727E+00  8.909E+00  6.682E-02  1.864E+00
   1    3    7     3     3    1.4684E+00  1.9718E-01   1.2712E+00  0.000E+00  0.000E+00  0.000E+00  1.06987E+03  1.555E+00  8.218E+00  5.547E-02  1.777E+00
   1    4    8     3     4    1.2712E+00  2.2567E-01   1.0456E+00  0.000E+00  0.000E+00  0.000E+00  1.06682E+03  1.364E+00  7.455E+00  6.709E-02  1.682E+00
   1    5    8     3     5    1.0456E+00  1.5790E-01   8.8768E-01  0.000E+00  0.000E+00  0.000E+00  1.06362E+03  1.164E+00  6.655E+00  4.991E-02  1.582E+00
   1    6    8     3     6    8.8768E-01  5.5980E-02   8.3170E-01  0.000E+00  0.000E+00  0.000E+00  1.06158E+03  1.036E+00  6.145E+00  1.844E-02  1.518E+00
   1    5   10     4     1    1.0000E+01  9.0919E-02   9.9091E+00  0.000E+00  0.000E+00  0.000E+00  1.07836E+03  6.368E-01  1.000E+01  2.500E-02  1.212E+00
   1    5    9     4     2    9.9091E+00  1.8158E-01   9.7275E+00  0.000E+00  0.000E+00  0.000E+00  1.07154E+03  6.315E-01  1.000E+01  5.000E-02  1.211E+00
   1    6    8     4     3    9.7275E+00  1.2689E-01   9.6006E+00  0.000E+00  0.000E+00  0.000E+00  1.06381E+03  6.256E-01  1.000E+01  3.500E-02  1.209E+00
   1    6    8     5     1    1.0432E+01  2.2686E-01   1.0205E+01  0.000E+00  0.000E+00  0.000E+00  1.05868E+03  6.790E-01  1.542E+01  6.166E-02  1.226E+00
   1    7    7     5     2    1.0205E+01  2.7894E-01   9.9265E+00  0.000E+00  0.000E+00  0.000E+00  1.05417E+03  6.732E-01  1.519E+01  7.594E-02  1.224E+00
   1    8    7     5     3    9.9265E+00  1.9221E-01   9.7343E+00  0.000E+00  0.000E+00  0.000E+00  1.04992E+03  6.676E-01  1.497E+01  5.241E-02  1.223E+00
   1    8    6     5     4    9.7343E+00  1.3577E-01   9.5985E+00  0.000E+00  0.000E+00  0.000E+00  1.04691E+03  6.637E-01  1.482E+01  3.706E-02  1.221E+00
   1    9    6     6     1    3.2957E+01  2.6627E-01   3.2691E+01  0.000E+00  0.000E+00  0.000E+00  1.04417E+03  1.438E+00  1.200E+01  6.000E-02  1.479E+00
   1   10    7     6     2    3.2691E+01  2.6585E-01   3.2425E+01  0.000E+00  0.000E+00  0.000E+00  1.03961E+03  1.431E+00  1.200E+01  6.000E-02  1.477E+00
   1   11    7     6     3    3.2425E+01  2.6542E-01   3.2160E+01  0.000E+00  0.000E+00  0.000E+00  1.03506E+03  1.424E+00  1.200E+01  6.000E-02  1.475E+00
   1   12    7     6     4    3.2160E+01  2.6500E-01   3.1895E+01  0.000E+00  0.000E+00  0.000E+00  1.03051E+03  1.417E+00  1.200E+01  6.000E-02  1.472E+00
   1   13    7     6     5    3.1895E+01  3.4517E-03   3.1891E+01  0.000E+00  0.000E+00  0.000E+00  1.02732E+03  1.413E+00  1.200E+01  2.400E-02  4.794E-02
   1   14    9     7     1    1.5000E+02  1.3316E+00   1.4867E+02  0.000E+00  0.000E+00  0.000E+00  1.03987E+03  2.288E+00  5.529E+01  5.593E-01  7.936E-01
   1   13    8     7     2    1.4867E+02  1.8137E+00   1.4685E+02  0.000E+00  0.000E+00  0.000E+00  1.03478E+03  2.279E+00  5.526E+01  6.148E-01  9.834E-01
   1   13    7     7     3    1.4685E+02  1.4027E+00   1.4545E+02  0.000E+00  0.000E+00  0.000E+00  1.02969E+03  2.271E+00  5.522E+01  5.585E-01  8.372E-01
   1   13    6     8     1    1.7734E+02  8.5941E-01   1.7648E+02  0.000E+00  0.000E+00  0.000E+00  1.02487E+03  2.997E+00  4.345E+01  4.428E-01  6.470E-01
   1   13    5     8     2    1.7648E+02  9.4663E-02   1.7639E+02  0.000E+00  0.000E+00  0.000E+00  1.01862E+03  2.994E+00  4.341E+01  4.423E-01  7.134E-02
   1   13    4     8     3    1.7639E+02 -3.0053E+00   1.7939E+02  0.000E+00  0.000E+00  0.000E+00  1.01238E+03  3.003E+00  4.354E+01  4.437E+00 -2.258E-01
   1   13    3     8     4    1.7939E+02 -4.1137E+00   1.8351E+02  0.000E+00  0.000E+00  0.000E+00  1.00615E+03  3.025E+00  4.387E+01  4.470E+00 -3.068E-01
   1   13    2     8     5    1.8351E+02 -3.0724E+00   1.8658E+02  0.000E+00  0.000E+00  0.000E+00  9.99923E+02  3.048E+00  4.419E+01  4.503E+00 -2.274E-01
   1   13    1     8     6    1.8658E+02 -2.2895E+00   1.8887E+02  0.000E+00  0.000E+00  0.000E+00  9.94939E+02  3.064E+00  4.443E+01  2.716E+00 -2.809E-01



 UBDSV3 SAVING "           GW ET" ON UNIT  61 AT TIME STEP  7, STRESS PERIOD   5
 UBDSV3 SAVING "    UZF RECHARGE" ON UNIT  61 AT TIME STEP  7, STRESS PERIOD   5
 UBDSV3 SAVING " SURFACE LEAKAGE" ON UNIT  61 AT TIME STEP  7, STRESS PERIOD   5
 UBDSV3 SAVING "       HORT+DUNN" ON UNIT  61 AT TIME STEP  7, STRESS PERIOD   5
 UBDSV3 SAVING "  STORAGE CHANGE" ON UNIT  61 AT TIME STEP  7, STRESS PERIOD   5


UNSATURATED ZONE PACKAGE VOLUMETRIC BUDGET FOR  TIME STEP     7 STRESS PERIOD    5
  ------------------------------------------------------------------------------



     CUMULATIVE VOLUMES      L**3       RATES FOR THIS TIME STEP      L**3/T
     ------------------                 ------------------------

           IN:                                      IN:
           ---                                      ---
        INFILTRATION =     9563013.1597          INFILTRATION =           4.5675

          OUT:                                     OUT:
          ----                                     ----
              UZF ET =     9489112.0118                UZF ET =           4.5675
        UZF RECHARGE =       73224.0000          UZF RECHARGE =       0.0000E+00

            IN - OUT =         677.1479              IN - OUT =       0.0000E+00

          STORAGE:                                 STORAGE:
          --------                                 --------
      STORAGE CHANGE =         677.2276        STORAGE CHANGE =       8.4369E-15

 PERCENT DISCREPANCY IS DIFFERENCE BETWEEN IN-OUT MINUS CHANGE IN STORAGE
 DIVIDED BY THE AVERAGE OF IN AND OUT TIMES 100

 PERCENT DISCREPANCY =           0.00     PERCENT DISCREPANCY =           0.00






 

            AG WELLS      PERIOD    5   STEP   7
 AG WELL      1   LAYER   1   ROW     6   COL     4   RATE   -0.620000    
 AG WELL      2   LAYER   1   ROW     6   COL     5   RATE   -0.620000    
 AG WELL      3   LAYER   1   ROW     7   COL     4   RATE   -0.620000    
 AG WELL      4   LAYER   1   ROW     7   COL     5   RATE   -0.620000    
 AG WELL      5   LAYER   1   ROW     8   COL     4   RATE   -0.620000    
 AG WELL      6   LAYER   1   ROW     8   COL     5   RATE   -0.620000    
 
 

        GW IRRIGATION     PERIOD    5   STEP   7
 AG WELL      1   ROW     6   COL     4   RATE    0.620000    
 AG WELL      2   ROW     6   COL     5   RATE    0.620000    
 AG WELL      3   ROW     7   COL     4   RATE    0.620000    
 AG WELL      4   ROW     7   COL     5   RATE    0.620000    
 AG WELL      5   ROW     8   COL     4   RATE    0.620000    
 AG WELL      6   ROW     8   COL     5   RATE    0.620000    
 
1
  VOLUMETRIC BUDGET FOR AGRICULTURAL FIELDS AT  END OF TIME STEP    7, STRESS PERIOD   5
  ------------------------------------------------------------------------------

     CUMULATIVE VOLUMES      L**3       RATES FOR THIS TIME STEP      L**3/T
     ------------------                 ------------------------

           IN:                                      IN:
           ---                                      ---
               AG WELLS  =     2282932.0000                 AG WELLS  =           3.7200
      DIVERSION SEGMENTS =           0.0000        DIVERSION SEGMENTS =           0.0000
           GW IRRIGATION =           0.0000             GW IRRIGATION =           0.0000
           SW IRRIGATION =           0.0000             SW IRRIGATION =           0.0000
        SYSTEM LOSSES GW =           0.0000          SYSTEM LOSSES GW =           0.0000
        SYSTEM LOSSES SW =           0.0000          SYSTEM LOSSES SW =           0.0000

                TOTAL IN =     2282932.0000                  TOTAL IN =           3.7200

          OUT:                                     OUT:
          ----                                     ----
               AG WELLS  =           0.0000                 AG WELLS  =           0.0000
      DIVERSION SEGMENTS =           0.0000        DIVERSION SEGMENTS =           0.0000
           GW IRRIGATION =     2282932.0000             GW IRRIGATION =           3.7200
           SW IRRIGATION =           0.0000             SW IRRIGATION =           0.0000
        SYSTEM LOSSES GW =           0.0000          SYSTEM LOSSES GW =           0.0000
        SYSTEM LOSSES SW =           0.0000          SYSTEM LOSSES SW =           0.0000

               TOTAL OUT =     2282932.0000                 TOTAL OUT =           3.7200

                IN - OUT =           0.0000                  IN - OUT =           0.0000

     PERCENT DISCREPANCY =           0.00         PERCENT DISCREPANCY =           0.00



1
  VOLUMETRIC BUDGET FOR ENTIRE MODEL AT END OF TIME STEP    7, STRESS PERIOD   5
  ------------------------------------------------------------------------------

     CUMULATIVE VOLUMES      L**3       RATES FOR THIS TIME STEP      L**3/T
     ------------------                 ------------------------

           IN:                                      IN:
           ---                                      ---
             STORAGE     =     8339191.0000               STORAGE     =           5.9780
       CONSTANT HEAD     =           0.0000         CONSTANT HEAD     =           0.0000
     HEAD DEP BOUNDS     =     2451806.7500       HEAD DEP BOUNDS     =           0.2855
      STREAM LEAKAGE     =   106098056.0000        STREAM LEAKAGE     =          11.6112
        UZF RECHARGE     =       73223.9531          UZF RECHARGE     =           0.0000
               GW ET     =           0.0000                 GW ET     =           0.0000
     SURFACE LEAKAGE     =           0.0000       SURFACE LEAKAGE     =           0.0000
           AG WELLS      =           0.0000             AG WELLS      =           0.0000

                TOTAL IN =   116962280.0000                  TOTAL IN =          17.8747

          OUT:                                     OUT:
          ----                                     ----
             STORAGE     =    23196488.0000               STORAGE     =           1.2208
       CONSTANT HEAD     =           0.0000         CONSTANT HEAD     =           0.0000
     HEAD DEP BOUNDS     =     2509607.0000       HEAD DEP BOUNDS     =           0.2957
      STREAM LEAKAGE     =    88825216.0000        STREAM LEAKAGE     =          12.4809
        UZF RECHARGE     =           0.0000          UZF RECHARGE     =           0.0000
               GW ET     =      152550.5312                 GW ET     =           0.1559
     SURFACE LEAKAGE     =           0.0000       SURFACE LEAKAGE     =           0.0000
           AG WELLS      =     2282932.0000             AG WELLS      =           3.7200

               TOTAL OUT =   116966800.0000                 TOTAL OUT =          17.8733

                IN - OUT =       -4520.0000                  IN - OUT =       1.3714E-03

     PERCENT DISCREPANCY =          -0.00         PERCENT DISCREPANCY =           0.01






         TIME SUMMARY AT END OF TIME STEP    7 IN STRESS PERIOD    5
                    SECONDS     MINUTES      HOURS       DAYS        YEARS
                    -----------------------------------------------------------
   TIME STEP LENGTH  87667.      1461.1      24.352      1.0147     2.77799E-03
 STRESS PERIOD TIME 6.13667E+05  10228.      170.46      7.1026     1.94459E-02
         TOTAL TIME 8.59006E+06 1.43168E+05  2386.1      99.422     0.27220    
1
 
 SOLVING FOR HEAD 
                                                   Max.-Head-Change                         Max.-Flux-Residual
  Residual-Control   Outer-Iter.   Inner-Iter.     Column Row Layer    Maximum-Head-Change  Column Row Layer    Maximum-Flux-Residual          L2-NORM 
          0                 1           2             4    7     1      -0.1115485900E-01       4    7    1        -0.5841602453E+00      0.1627948703E+01
          0                 2           2             4    7     1       0.1085062047E-02       4    7    1         0.5841592454E-01      0.1614466740E+00
          0                 3           1             4    7     1      -0.7388871831E-04       4    7    1        -0.4089117441E-02      0.1117687669E-01

    ------------------------------------------------
       NWT REQUIRED            3 OUTER ITERATIONS 
       AND A TOTAL OF          5 INNER ITERATIONS.
    ------------------------------------------------

 OUTPUT CONTROL FOR STRESS PERIOD    5   TIME STEP    8
    PRINT BUDGET
    SAVE BUDGET
 UBDSV1 SAVING "         STORAGE" ON UNIT 102 AT TIME STEP  8, STRESS PERIOD   5
 UBDSV2 SAVING "   CONSTANT HEAD" ON UNIT 102 AT TIME STEP  8, STRESS PERIOD   5
 UBDSV1 SAVING "FLOW RIGHT FACE " ON UNIT 102 AT TIME STEP  8, STRESS PERIOD   5
 UBDSV1 SAVING "FLOW FRONT FACE " ON UNIT 102 AT TIME STEP  8, STRESS PERIOD   5

  HEAD DEP BOUNDS   PERIOD    5   STEP     8
 BOUNDARY      1   LAYER   1   ROW    13   COL     1   RATE   -0.295503    
 BOUNDARY      2   LAYER   1   ROW    14   COL     9   RATE    0.285475    



 STREAM LISTING     PERIOD      5   STEP        8

 LAYER ROW COL. STREAM  RCH.  FLOW INTO     FLOW TO   FLOW OUT OF   OVRLND.     DIRECT     STREAM       STREAM     STREAM     STREAM   STREAMBED  STREAMBED
                SEG.NO.  NO.  STRM. RCH.    AQUIFER    STRM. RCH.    RUNOFF     PRECIP       ET          HEAD       DEPTH      WIDTH   CONDCTNC.   GRADIENT

   1    1    1     1     1    2.8000E+01  2.5860E-01   2.7742E+01  0.000E+00  0.000E+00  0.000E+00  1.09427E+03  1.221E+00  1.361E+01  6.126E-02  1.407E+00
   1    2    2     1     2    2.7742E+01  4.0002E-01   2.7341E+01  0.000E+00  0.000E+00  0.000E+00  1.08928E+03  1.217E+00  1.355E+01  9.487E-02  1.406E+00
   1    3    3     1     3    2.7341E+01  3.4070E-01   2.7001E+01  0.000E+00  0.000E+00  0.000E+00  1.08363E+03  1.212E+00  1.348E+01  8.090E-02  1.404E+00
   1    3    4     1     4    2.7001E+01  3.1335E-01   2.6687E+01  0.000E+00  0.000E+00  0.000E+00  1.07861E+03  1.207E+00  1.342E+01  7.448E-02  1.402E+00
   1    4    5     2     1    2.4687E+01  3.2711E-01   2.4360E+01  0.000E+00  0.000E+00  0.000E+00  1.07313E+03  1.194E+00  1.200E+01  7.800E-02  1.398E+00
   1    5    6     2     2    2.4360E+01  2.5111E-01   2.4109E+01  0.000E+00  0.000E+00  0.000E+00  1.06769E+03  1.185E+00  1.200E+01  6.000E-02  1.395E+00
   1    6    6     2     3    2.4109E+01  2.5067E-01   2.3859E+01  0.000E+00  0.000E+00  0.000E+00  1.06297E+03  1.178E+00  1.200E+01  6.000E-02  1.393E+00
   1    7    6     2     4    2.3859E+01  2.5023E-01   2.3608E+01  0.000E+00  0.000E+00  0.000E+00  1.05825E+03  1.170E+00  1.200E+01  6.000E-02  1.390E+00
   1    8    6     2     5    2.3608E+01  2.4978E-01   2.3359E+01  0.000E+00  0.000E+00  0.000E+00  1.05352E+03  1.163E+00  1.200E+01  6.000E-02  1.388E+00
   1    3    5     3     1    2.0000E+00  2.8252E-01   1.7175E+00  0.000E+00  0.000E+00  0.000E+00  1.07555E+03  1.909E+00  9.636E+00  7.227E-02  1.955E+00
   1    3    6     3     2    1.7175E+00  2.4905E-01   1.4684E+00  0.000E+00  0.000E+00  0.000E+00  1.07264E+03  1.727E+00  8.909E+00  6.682E-02  1.864E+00
   1    3    7     3     3    1.4684E+00  1.9718E-01   1.2712E+00  0.000E+00  0.000E+00  0.000E+00  1.06987E+03  1.555E+00  8.218E+00  5.547E-02  1.777E+00
   1    4    8     3     4    1.2712E+00  2.2567E-01   1.0456E+00  0.000E+00  0.000E+00  0.000E+00  1.06682E+03  1.364E+00  7.455E+00  6.709E-02  1.682E+00
   1    5    8     3     5    1.0456E+00  1.5790E-01   8.8768E-01  0.000E+00  0.000E+00  0.000E+00  1.06362E+03  1.164E+00  6.655E+00  4.991E-02  1.582E+00
   1    6    8     3     6    8.8768E-01  5.5980E-02   8.3170E-01  0.000E+00  0.000E+00  0.000E+00  1.06158E+03  1.036E+00  6.145E+00  1.844E-02  1.518E+00
   1    5   10     4     1    1.0000E+01  9.0919E-02   9.9091E+00  0.000E+00  0.000E+00  0.000E+00  1.07836E+03  6.368E-01  1.000E+01  2.500E-02  1.212E+00
   1    5    9     4     2    9.9091E+00  1.8158E-01   9.7275E+00  0.000E+00  0.000E+00  0.000E+00  1.07154E+03  6.315E-01  1.000E+01  5.000E-02  1.211E+00
   1    6    8     4     3    9.7275E+00  1.2689E-01   9.6006E+00  0.000E+00  0.000E+00  0.000E+00  1.06381E+03  6.256E-01  1.000E+01  3.500E-02  1.209E+00
   1    6    8     5     1    1.0432E+01  2.2686E-01   1.0205E+01  0.000E+00  0.000E+00  0.000E+00  1.05868E+03  6.790E-01  1.542E+01  6.166E-02  1.226E+00
   1    7    7     5     2    1.0205E+01  2.7894E-01   9.9265E+00  0.000E+00  0.000E+00  0.000E+00  1.05417E+03  6.732E-01  1.519E+01  7.594E-02  1.224E+00
   1    8    7     5     3    9.9265E+00  1.9221E-01   9.7343E+00  0.000E+00  0.000E+00  0.000E+00  1.04992E+03  6.676E-01  1.497E+01  5.241E-02  1.223E+00
   1    8    6     5     4    9.7343E+00  1.3577E-01   9.5985E+00  0.000E+00  0.000E+00  0.000E+00  1.04691E+03  6.637E-01  1.482E+01  3.706E-02  1.221E+00
   1    9    6     6     1    3.2957E+01  2.6627E-01   3.2691E+01  0.000E+00  0.000E+00  0.000E+00  1.04417E+03  1.438E+00  1.200E+01  6.000E-02  1.479E+00
   1   10    7     6     2    3.2691E+01  2.6585E-01   3.2425E+01  0.000E+00  0.000E+00  0.000E+00  1.03961E+03  1.431E+00  1.200E+01  6.000E-02  1.477E+00
   1   11    7     6     3    3.2425E+01  2.6542E-01   3.2160E+01  0.000E+00  0.000E+00  0.000E+00  1.03506E+03  1.424E+00  1.200E+01  6.000E-02  1.475E+00
   1   12    7     6     4    3.2160E+01  2.6500E-01   3.1895E+01  0.000E+00  0.000E+00  0.000E+00  1.03051E+03  1.417E+00  1.200E+01  6.000E-02  1.472E+00
   1   13    7     6     5    3.1895E+01  3.4439E-03   3.1891E+01  0.000E+00  0.000E+00  0.000E+00  1.02732E+03  1.413E+00  1.200E+01  2.400E-02  4.783E-02
   1   14    9     7     1    1.5000E+02  1.3317E+00   1.4867E+02  0.000E+00  0.000E+00  0.000E+00  1.03987E+03  2.288E+00  5.529E+01  5.593E-01  7.936E-01
   1   13    8     7     2    1.4867E+02  1.8136E+00   1.4685E+02  0.000E+00  0.000E+00  0.000E+00  1.03478E+03  2.279E+00  5.526E+01  6.148E-01  9.833E-01
   1   13    7     7     3    1.4685E+02  1.4025E+00   1.4545E+02  0.000E+00  0.000E+00  0.000E+00  1.02969E+03  2.271E+00  5.522E+01  5.585E-01  8.371E-01
   1   13    6     8     1    1.7734E+02  8.5998E-01   1.7648E+02  0.000E+00  0.000E+00  0.000E+00  1.02487E+03  2.997E+00  4.345E+01  4.428E-01  6.474E-01
   1   13    5     8     2    1.7648E+02  9.5258E-02   1.7639E+02  0.000E+00  0.000E+00  0.000E+00  1.01862E+03  2.994E+00  4.341E+01  4.423E-01  7.178E-02
   1   13    4     8     3    1.7639E+02 -2.9725E+00   1.7936E+02  0.000E+00  0.000E+00  0.000E+00  1.01238E+03  3.003E+00  4.354E+01  4.437E+00 -2.233E-01
   1   13    3     8     4    1.7936E+02 -4.0806E+00   1.8344E+02  0.000E+00  0.000E+00  0.000E+00  1.00615E+03  3.025E+00  4.386E+01  4.470E+00 -3.043E-01
   1   13    2     8     5    1.8344E+02 -3.0368E+00   1.8648E+02  0.000E+00  0.000E+00  0.000E+00  9.99922E+02  3.047E+00  4.418E+01  4.502E+00 -2.248E-01
   1   13    1     8     6    1.8648E+02 -2.2759E+00   1.8875E+02  0.000E+00  0.000E+00  0.000E+00  9.94938E+02  3.063E+00  4.442E+01  2.716E+00 -2.793E-01



 UBDSV3 SAVING "           GW ET" ON UNIT  61 AT TIME STEP  8, STRESS PERIOD   5
 UBDSV3 SAVING "    UZF RECHARGE" ON UNIT  61 AT TIME STEP  8, STRESS PERIOD   5
 UBDSV3 SAVING " SURFACE LEAKAGE" ON UNIT  61 AT TIME STEP  8, STRESS PERIOD   5
 UBDSV3 SAVING "       HORT+DUNN" ON UNIT  61 AT TIME STEP  8, STRESS PERIOD   5
 UBDSV3 SAVING "  STORAGE CHANGE" ON UNIT  61 AT TIME STEP  8, STRESS PERIOD   5


UNSATURATED ZONE PACKAGE VOLUMETRIC BUDGET FOR  TIME STEP     8 STRESS PERIOD    5
  ------------------------------------------------------------------------------



     CUMULATIVE VOLUMES      L**3       RATES FOR THIS TIME STEP      L**3/T
     ------------------                 ------------------------

           IN:                                      IN:
           ---                                      ---
        INFILTRATION =     9963430.6400          INFILTRATION =           4.5675

          OUT:                                     OUT:
          ----                                     ----
              UZF ET =     9889529.4921                UZF ET =           4.5675
        UZF RECHARGE =       73224.0000          UZF RECHARGE =       0.0000E+00

            IN - OUT =         677.1479              IN - OUT =       0.0000E+00

          STORAGE:                                 STORAGE:
          --------                                 --------
      STORAGE CHANGE =         677.2276        STORAGE CHANGE =       8.4368E-15

 PERCENT DISCREPANCY IS DIFFERENCE BETWEEN IN-OUT MINUS CHANGE IN STORAGE
 DIVIDED BY THE AVERAGE OF IN AND OUT TIMES 100

 PERCENT DISCREPANCY =           0.00     PERCENT DISCREPANCY =           0.00






 

            AG WELLS      PERIOD    5   STEP   8
 AG WELL      1   LAYER   1   ROW     6   COL     4   RATE   -0.620000    
 AG WELL      2   LAYER   1   ROW     6   COL     5   RATE   -0.620000    
 AG WELL      3   LAYER   1   ROW     7   COL     4   RATE   -0.620000    
 AG WELL      4   LAYER   1   ROW     7   COL     5   RATE   -0.620000    
 AG WELL      5   LAYER   1   ROW     8   COL     4   RATE   -0.620000    
 AG WELL      6   LAYER   1   ROW     8   COL     5   RATE   -0.620000    
 
 

        GW IRRIGATION     PERIOD    5   STEP   8
 AG WELL      1   ROW     6   COL     4   RATE    0.620000    
 AG WELL      2   ROW     6   COL     5   RATE    0.620000    
 AG WELL      3   ROW     7   COL     4   RATE    0.620000    
 AG WELL      4   ROW     7   COL     5   RATE    0.620000    
 AG WELL      5   ROW     8   COL     4   RATE    0.620000    
 AG WELL      6   ROW     8   COL     5   RATE    0.620000    
 
1
  VOLUMETRIC BUDGET FOR AGRICULTURAL FIELDS AT  END OF TIME STEP    8, STRESS PERIOD   5
  ------------------------------------------------------------------------------

     CUMULATIVE VOLUMES      L**3       RATES FOR THIS TIME STEP      L**3/T
     ------------------                 ------------------------

           IN:                                      IN:
           ---                                      ---
               AG WELLS  =     2609052.0000                 AG WELLS  =           3.7200
      DIVERSION SEGMENTS =           0.0000        DIVERSION SEGMENTS =           0.0000
           GW IRRIGATION =           0.0000             GW IRRIGATION =           0.0000
           SW IRRIGATION =           0.0000             SW IRRIGATION =           0.0000
        SYSTEM LOSSES GW =           0.0000          SYSTEM LOSSES GW =           0.0000
        SYSTEM LOSSES SW =           0.0000          SYSTEM LOSSES SW =           0.0000

                TOTAL IN =     2609052.0000                  TOTAL IN =           3.7200

          OUT:                                     OUT:
          ----                                     ----
               AG WELLS  =           0.0000                 AG WELLS  =           0.0000
      DIVERSION SEGMENTS =           0.0000        DIVERSION SEGMENTS =           0.0000
           GW IRRIGATION =     2609052.0000             GW IRRIGATION =           3.7200
           SW IRRIGATION =           0.0000             SW IRRIGATION =           0.0000
        SYSTEM LOSSES GW =           0.0000          SYSTEM LOSSES GW =           0.0000
        SYSTEM LOSSES SW =           0.0000          SYSTEM LOSSES SW =           0.0000

               TOTAL OUT =     2609052.0000                 TOTAL OUT =           3.7200

                IN - OUT =           0.0000                  IN - OUT =           0.0000

     PERCENT DISCREPANCY =           0.00         PERCENT DISCREPANCY =           0.00



1
  VOLUMETRIC BUDGET FOR ENTIRE MODEL AT END OF TIME STEP    8, STRESS PERIOD   5
  ------------------------------------------------------------------------------

     CUMULATIVE VOLUMES      L**3       RATES FOR THIS TIME STEP      L**3/T
     ------------------                 ------------------------

           IN:                                      IN:
           ---                                      ---
             STORAGE     =     8848682.0000               STORAGE     =           5.8117
       CONSTANT HEAD     =           0.0000         CONSTANT HEAD     =           0.0000
     HEAD DEP BOUNDS     =     2476833.5000       HEAD DEP BOUNDS     =           0.2855
      STREAM LEAKAGE     =   107116040.0000        STREAM LEAKAGE     =          11.6120
        UZF RECHARGE     =       73223.9531          UZF RECHARGE     =           0.0000
               GW ET     =           0.0000                 GW ET     =           0.0000
     SURFACE LEAKAGE     =           0.0000       SURFACE LEAKAGE     =           0.0000
           AG WELLS      =           0.0000             AG WELLS      =           0.0000

                TOTAL IN =   118514776.0000                  TOTAL IN =          17.7092

          OUT:                                     OUT:
          ----                                     ----
             STORAGE     =    23300758.0000               STORAGE     =           1.1894
       CONSTANT HEAD     =           0.0000         CONSTANT HEAD     =           0.0000
     HEAD DEP BOUNDS     =     2535512.7500       HEAD DEP BOUNDS     =           0.2955
      STREAM LEAKAGE     =    89909288.0000        STREAM LEAKAGE     =          12.3658
        UZF RECHARGE     =           0.0000          UZF RECHARGE     =           0.0000
               GW ET     =      164574.2812                 GW ET     =           0.1372
     SURFACE LEAKAGE     =           0.0000       SURFACE LEAKAGE     =           0.0000
           AG WELLS      =     2609052.0000             AG WELLS      =           3.7200

               TOTAL OUT =   118519184.0000                 TOTAL OUT =          17.7079

                IN - OUT =       -4408.0000                  IN - OUT =       1.3332E-03

     PERCENT DISCREPANCY =          -0.00         PERCENT DISCREPANCY =           0.01






         TIME SUMMARY AT END OF TIME STEP    8 IN STRESS PERIOD    5
                    SECONDS     MINUTES      HOURS       DAYS        YEARS
                    -----------------------------------------------------------
   TIME STEP LENGTH  87667.      1461.1      24.352      1.0147     2.77799E-03
 STRESS PERIOD TIME 7.01333E+05  11689.      194.81      8.1173     2.22239E-02
         TOTAL TIME 8.67773E+06 1.44629E+05  2410.5      100.44     0.27498    
1
 
 SOLVING FOR HEAD 
                                                   Max.-Head-Change                         Max.-Flux-Residual
  Residual-Control   Outer-Iter.   Inner-Iter.     Column Row Layer    Maximum-Head-Change  Column Row Layer    Maximum-Flux-Residual          L2-NORM 
          0                 1           2             4    7     1      -0.1106459641E-01       4    7    1        -0.5796010842E+00      0.1567735323E+01
          0                 2           2             4    7     1       0.1076281910E-02       4    7    1         0.5796000494E-01      0.1556041218E+00
          0                 3           1             4    7     1      -0.7329082388E-04       4    7    1        -0.4057203069E-02      0.1078435152E-01

    ------------------------------------------------
       NWT REQUIRED            3 OUTER ITERATIONS 
       AND A TOTAL OF          5 INNER ITERATIONS.
    ------------------------------------------------

 OUTPUT CONTROL FOR STRESS PERIOD    5   TIME STEP    9
    PRINT BUDGET
    SAVE BUDGET
 UBDSV1 SAVING "         STORAGE" ON UNIT 102 AT TIME STEP  9, STRESS PERIOD   5
 UBDSV2 SAVING "   CONSTANT HEAD" ON UNIT 102 AT TIME STEP  9, STRESS PERIOD   5
 UBDSV1 SAVING "FLOW RIGHT FACE " ON UNIT 102 AT TIME STEP  9, STRESS PERIOD   5
 UBDSV1 SAVING "FLOW FRONT FACE " ON UNIT 102 AT TIME STEP  9, STRESS PERIOD   5

  HEAD DEP BOUNDS   PERIOD    5   STEP     9
 BOUNDARY      1   LAYER   1   ROW    13   COL     1   RATE   -0.295303    
 BOUNDARY      2   LAYER   1   ROW    14   COL     9   RATE    0.285476    



 STREAM LISTING     PERIOD      5   STEP        9

 LAYER ROW COL. STREAM  RCH.  FLOW INTO     FLOW TO   FLOW OUT OF   OVRLND.     DIRECT     STREAM       STREAM     STREAM     STREAM   STREAMBED  STREAMBED
                SEG.NO.  NO.  STRM. RCH.    AQUIFER    STRM. RCH.    RUNOFF     PRECIP       ET          HEAD       DEPTH      WIDTH   CONDCTNC.   GRADIENT

   1    1    1     1     1    2.8000E+01  2.5860E-01   2.7742E+01  0.000E+00  0.000E+00  0.000E+00  1.09427E+03  1.221E+00  1.361E+01  6.126E-02  1.407E+00
   1    2    2     1     2    2.7742E+01  4.0002E-01   2.7341E+01  0.000E+00  0.000E+00  0.000E+00  1.08928E+03  1.217E+00  1.355E+01  9.487E-02  1.406E+00
   1    3    3     1     3    2.7341E+01  3.4070E-01   2.7001E+01  0.000E+00  0.000E+00  0.000E+00  1.08363E+03  1.212E+00  1.348E+01  8.090E-02  1.404E+00
   1    3    4     1     4    2.7001E+01  3.1335E-01   2.6687E+01  0.000E+00  0.000E+00  0.000E+00  1.07861E+03  1.207E+00  1.342E+01  7.448E-02  1.402E+00
   1    4    5     2     1    2.4687E+01  3.2711E-01   2.4360E+01  0.000E+00  0.000E+00  0.000E+00  1.07313E+03  1.194E+00  1.200E+01  7.800E-02  1.398E+00
   1    5    6     2     2    2.4360E+01  2.5111E-01   2.4109E+01  0.000E+00  0.000E+00  0.000E+00  1.06769E+03  1.185E+00  1.200E+01  6.000E-02  1.395E+00
   1    6    6     2     3    2.4109E+01  2.5067E-01   2.3859E+01  0.000E+00  0.000E+00  0.000E+00  1.06297E+03  1.178E+00  1.200E+01  6.000E-02  1.393E+00
   1    7    6     2     4    2.3859E+01  2.5023E-01   2.3608E+01  0.000E+00  0.000E+00  0.000E+00  1.05825E+03  1.170E+00  1.200E+01  6.000E-02  1.390E+00
   1    8    6     2     5    2.3608E+01  2.4978E-01   2.3359E+01  0.000E+00  0.000E+00  0.000E+00  1.05352E+03  1.163E+00  1.200E+01  6.000E-02  1.388E+00
   1    3    5     3     1    2.0000E+00  2.8252E-01   1.7175E+00  0.000E+00  0.000E+00  0.000E+00  1.07555E+03  1.909E+00  9.636E+00  7.227E-02  1.955E+00
   1    3    6     3     2    1.7175E+00  2.4905E-01   1.4684E+00  0.000E+00  0.000E+00  0.000E+00  1.07264E+03  1.727E+00  8.909E+00  6.682E-02  1.864E+00
   1    3    7     3     3    1.4684E+00  1.9718E-01   1.2712E+00  0.000E+00  0.000E+00  0.000E+00  1.06987E+03  1.555E+00  8.218E+00  5.547E-02  1.777E+00
   1    4    8     3     4    1.2712E+00  2.2567E-01   1.0456E+00  0.000E+00  0.000E+00  0.000E+00  1.06682E+03  1.364E+00  7.455E+00  6.709E-02  1.682E+00
   1    5    8     3     5    1.0456E+00  1.5790E-01   8.8768E-01  0.000E+00  0.000E+00  0.000E+00  1.06362E+03  1.164E+00  6.655E+00  4.991E-02  1.582E+00
   1    6    8     3     6    8.8768E-01  5.5980E-02   8.3170E-01  0.000E+00  0.000E+00  0.000E+00  1.06158E+03  1.036E+00  6.145E+00  1.844E-02  1.518E+00
   1    5   10     4     1    1.0000E+01  9.0919E-02   9.9091E+00  0.000E+00  0.000E+00  0.000E+00  1.07836E+03  6.368E-01  1.000E+01  2.500E-02  1.212E+00
   1    5    9     4     2    9.9091E+00  1.8158E-01   9.7275E+00  0.000E+00  0.000E+00  0.000E+00  1.07154E+03  6.315E-01  1.000E+01  5.000E-02  1.211E+00
   1    6    8     4     3    9.7275E+00  1.2689E-01   9.6006E+00  0.000E+00  0.000E+00  0.000E+00  1.06381E+03  6.256E-01  1.000E+01  3.500E-02  1.209E+00
   1    6    8     5     1    1.0432E+01  2.2686E-01   1.0205E+01  0.000E+00  0.000E+00  0.000E+00  1.05868E+03  6.790E-01  1.542E+01  6.166E-02  1.226E+00
   1    7    7     5     2    1.0205E+01  2.7894E-01   9.9265E+00  0.000E+00  0.000E+00  0.000E+00  1.05417E+03  6.732E-01  1.519E+01  7.594E-02  1.224E+00
   1    8    7     5     3    9.9265E+00  1.9221E-01   9.7343E+00  0.000E+00  0.000E+00  0.000E+00  1.04992E+03  6.676E-01  1.497E+01  5.241E-02  1.223E+00
   1    8    6     5     4    9.7343E+00  1.3577E-01   9.5985E+00  0.000E+00  0.000E+00  0.000E+00  1.04691E+03  6.637E-01  1.482E+01  3.706E-02  1.221E+00
   1    9    6     6     1    3.2957E+01  2.6627E-01   3.2691E+01  0.000E+00  0.000E+00  0.000E+00  1.04417E+03  1.438E+00  1.200E+01  6.000E-02  1.479E+00
   1   10    7     6     2    3.2691E+01  2.6585E-01   3.2425E+01  0.000E+00  0.000E+00  0.000E+00  1.03961E+03  1.431E+00  1.200E+01  6.000E-02  1.477E+00
   1   11    7     6     3    3.2425E+01  2.6542E-01   3.2160E+01  0.000E+00  0.000E+00  0.000E+00  1.03506E+03  1.424E+00  1.200E+01  6.000E-02  1.475E+00
   1   12    7     6     4    3.2160E+01  2.6500E-01   3.1895E+01  0.000E+00  0.000E+00  0.000E+00  1.03051E+03  1.417E+00  1.200E+01  6.000E-02  1.472E+00
   1   13    7     6     5    3.1895E+01  3.4365E-03   3.1891E+01  0.000E+00  0.000E+00  0.000E+00  1.02732E+03  1.413E+00  1.200E+01  2.400E-02  4.773E-02
   1   14    9     7     1    1.5000E+02  1.3317E+00   1.4867E+02  0.000E+00  0.000E+00  0.000E+00  1.03987E+03  2.288E+00  5.529E+01  5.593E-01  7.936E-01
   1   13    8     7     2    1.4867E+02  1.8134E+00   1.4685E+02  0.000E+00  0.000E+00  0.000E+00  1.03478E+03  2.279E+00  5.526E+01  6.148E-01  9.832E-01
   1   13    7     7     3    1.4685E+02  1.4024E+00   1.4545E+02  0.000E+00  0.000E+00  0.000E+00  1.02969E+03  2.271E+00  5.522E+01  5.585E-01  8.370E-01
   1   13    6     8     1    1.7734E+02  8.6053E-01   1.7648E+02  0.000E+00  0.000E+00  0.000E+00  1.02487E+03  2.997E+00  4.345E+01  4.428E-01  6.478E-01
   1   13    5     8     2    1.7648E+02  9.5861E-02   1.7639E+02  0.000E+00  0.000E+00  0.000E+00  1.01862E+03  2.994E+00  4.341E+01  4.423E-01  7.224E-02
   1   13    4     8     3    1.7639E+02 -2.9433E+00   1.7933E+02  0.000E+00  0.000E+00  0.000E+00  1.01238E+03  3.003E+00  4.354E+01  4.437E+00 -2.211E-01
   1   13    3     8     4    1.7933E+02 -4.0508E+00   1.8338E+02  0.000E+00  0.000E+00  0.000E+00  1.00615E+03  3.025E+00  4.386E+01  4.469E+00 -3.021E-01
   1   13    2     8     5    1.8338E+02 -3.0039E+00   1.8639E+02  0.000E+00  0.000E+00  0.000E+00  9.99922E+02  3.047E+00  4.418E+01  4.502E+00 -2.224E-01
   1   13    1     8     6    1.8639E+02 -2.2628E+00   1.8865E+02  0.000E+00  0.000E+00  0.000E+00  9.94938E+02  3.063E+00  4.441E+01  2.715E+00 -2.778E-01



 UBDSV3 SAVING "           GW ET" ON UNIT  61 AT TIME STEP  9, STRESS PERIOD   5
 UBDSV3 SAVING "    UZF RECHARGE" ON UNIT  61 AT TIME STEP  9, STRESS PERIOD   5
 UBDSV3 SAVING " SURFACE LEAKAGE" ON UNIT  61 AT TIME STEP  9, STRESS PERIOD   5
 UBDSV3 SAVING "       HORT+DUNN" ON UNIT  61 AT TIME STEP  9, STRESS PERIOD   5
 UBDSV3 SAVING "  STORAGE CHANGE" ON UNIT  61 AT TIME STEP  9, STRESS PERIOD   5


UNSATURATED ZONE PACKAGE VOLUMETRIC BUDGET FOR  TIME STEP     9 STRESS PERIOD    5
  ------------------------------------------------------------------------------



     CUMULATIVE VOLUMES      L**3       RATES FOR THIS TIME STEP      L**3/T
     ------------------                 ------------------------

           IN:                                      IN:
           ---                                      ---
        INFILTRATION =    10363848.1202          INFILTRATION =           4.5675

          OUT:                                     OUT:
          ----                                     ----
              UZF ET =    10289946.9723                UZF ET =           4.5675
        UZF RECHARGE =       73224.0000          UZF RECHARGE =       0.0000E+00

            IN - OUT =         677.1479              IN - OUT =       0.0000E+00

          STORAGE:                                 STORAGE:
          --------                                 --------
      STORAGE CHANGE =         677.2276        STORAGE CHANGE =       8.4382E-15

 PERCENT DISCREPANCY IS DIFFERENCE BETWEEN IN-OUT MINUS CHANGE IN STORAGE
 DIVIDED BY THE AVERAGE OF IN AND OUT TIMES 100

 PERCENT DISCREPANCY =           0.00     PERCENT DISCREPANCY =           0.00






 

            AG WELLS      PERIOD    5   STEP   9
 AG WELL      1   LAYER   1   ROW     6   COL     4   RATE   -0.620000    
 AG WELL      2   LAYER   1   ROW     6   COL     5   RATE   -0.620000    
 AG WELL      3   LAYER   1   ROW     7   COL     4   RATE   -0.620000    
 AG WELL      4   LAYER   1   ROW     7   COL     5   RATE   -0.620000    
 AG WELL      5   LAYER   1   ROW     8   COL     4   RATE   -0.620000    
 AG WELL      6   LAYER   1   ROW     8   COL     5   RATE   -0.620000    
 
 

        GW IRRIGATION     PERIOD    5   STEP   9
 AG WELL      1   ROW     6   COL     4   RATE    0.620000    
 AG WELL      2   ROW     6   COL     5   RATE    0.620000    
 AG WELL      3   ROW     7   COL     4   RATE    0.620000    
 AG WELL      4   ROW     7   COL     5   RATE    0.620000    
 AG WELL      5   ROW     8   COL     4   RATE    0.620000    
 AG WELL      6   ROW     8   COL     5   RATE    0.620000    
 
1
  VOLUMETRIC BUDGET FOR AGRICULTURAL FIELDS AT  END OF TIME STEP    9, STRESS PERIOD   5
  ------------------------------------------------------------------------------

     CUMULATIVE VOLUMES      L**3       RATES FOR THIS TIME STEP      L**3/T
     ------------------                 ------------------------

           IN:                                      IN:
           ---                                      ---
               AG WELLS  =     2935172.0000                 AG WELLS  =           3.7200
      DIVERSION SEGMENTS =           0.0000        DIVERSION SEGMENTS =           0.0000
           GW IRRIGATION =           0.0000             GW IRRIGATION =           0.0000
           SW IRRIGATION =           0.0000             SW IRRIGATION =           0.0000
        SYSTEM LOSSES GW =           0.0000          SYSTEM LOSSES GW =           0.0000
        SYSTEM LOSSES SW =           0.0000          SYSTEM LOSSES SW =           0.0000

                TOTAL IN =     2935172.0000                  TOTAL IN =           3.7200

          OUT:                                     OUT:
          ----                                     ----
               AG WELLS  =           0.0000                 AG WELLS  =           0.0000
      DIVERSION SEGMENTS =           0.0000        DIVERSION SEGMENTS =           0.0000
           GW IRRIGATION =     2935172.0000             GW IRRIGATION =           3.7200
           SW IRRIGATION =           0.0000             SW IRRIGATION =           0.0000
        SYSTEM LOSSES GW =           0.0000          SYSTEM LOSSES GW =           0.0000
        SYSTEM LOSSES SW =           0.0000          SYSTEM LOSSES SW =           0.0000

               TOTAL OUT =     2935172.0000                 TOTAL OUT =           3.7200

                IN - OUT =           0.0000                  IN - OUT =           0.0000

     PERCENT DISCREPANCY =           0.00         PERCENT DISCREPANCY =           0.00



1
  VOLUMETRIC BUDGET FOR ENTIRE MODEL AT END OF TIME STEP    9, STRESS PERIOD   5
  ------------------------------------------------------------------------------

     CUMULATIVE VOLUMES      L**3       RATES FOR THIS TIME STEP      L**3/T
     ------------------                 ------------------------

           IN:                                      IN:
           ---                                      ---
             STORAGE     =     9344774.0000               STORAGE     =           5.6588
       CONSTANT HEAD     =           0.0000         CONSTANT HEAD     =           0.0000
     HEAD DEP BOUNDS     =     2501860.2500       HEAD DEP BOUNDS     =           0.2855
      STREAM LEAKAGE     =   108134104.0000        STREAM LEAKAGE     =          11.6129
        UZF RECHARGE     =       73223.9531          UZF RECHARGE     =           0.0000
               GW ET     =           0.0000                 GW ET     =           0.0000
     SURFACE LEAKAGE     =           0.0000       SURFACE LEAKAGE     =           0.0000
           AG WELLS      =           0.0000             AG WELLS      =           0.0000

                TOTAL IN =   120053960.0000                  TOTAL IN =          17.5572

          OUT:                                     OUT:
          ----                                     ----
             STORAGE     =    23402406.0000               STORAGE     =           1.1595
       CONSTANT HEAD     =           0.0000         CONSTANT HEAD     =           0.0000
     HEAD DEP BOUNDS     =     2561401.0000       HEAD DEP BOUNDS     =           0.2953
      STREAM LEAKAGE     =    90984144.0000        STREAM LEAKAGE     =          12.2607
        UZF RECHARGE     =           0.0000          UZF RECHARGE     =           0.0000
               GW ET     =      175128.7500                 GW ET     =           0.1204
     SURFACE LEAKAGE     =           0.0000       SURFACE LEAKAGE     =           0.0000
           AG WELLS      =     2935172.0000             AG WELLS      =           3.7200

               TOTAL OUT =   120058256.0000                 TOTAL OUT =          17.5559

                IN - OUT =       -4296.0000                  IN - OUT =       1.2970E-03

     PERCENT DISCREPANCY =          -0.00         PERCENT DISCREPANCY =           0.01






         TIME SUMMARY AT END OF TIME STEP    9 IN STRESS PERIOD    5
                    SECONDS     MINUTES      HOURS       DAYS        YEARS
                    -----------------------------------------------------------
   TIME STEP LENGTH  87667.      1461.1      24.352      1.0147     2.77799E-03
 STRESS PERIOD TIME 7.89000E+05  13150.      219.17      9.1319     2.50019E-02
         TOTAL TIME 8.76540E+06 1.46090E+05  2434.8      101.45     0.27776    
1
 
 SOLVING FOR HEAD 
                                                   Max.-Head-Change                         Max.-Flux-Residual
  Residual-Control   Outer-Iter.   Inner-Iter.     Column Row Layer    Maximum-Head-Change  Column Row Layer    Maximum-Flux-Residual          L2-NORM 
          0                 1           2             4    7     1      -0.1097202412E-01       4    7    1        -0.5749061399E+00      0.1514245713E+01
          0                 2           2             4    7     1       0.1067277110E-02       4    7    1         0.5749050757E-01      0.1504112542E+00
          0                 3           1             4    7     1      -0.7267763089E-04       4    7    1        -0.4024338264E-02      0.1043535071E-01

    ------------------------------------------------
       NWT REQUIRED            3 OUTER ITERATIONS 
       AND A TOTAL OF          5 INNER ITERATIONS.
    ------------------------------------------------

 OUTPUT CONTROL FOR STRESS PERIOD    5   TIME STEP   10
    PRINT BUDGET
    SAVE BUDGET
 UBDSV1 SAVING "         STORAGE" ON UNIT 102 AT TIME STEP 10, STRESS PERIOD   5
 UBDSV2 SAVING "   CONSTANT HEAD" ON UNIT 102 AT TIME STEP 10, STRESS PERIOD   5
 UBDSV1 SAVING "FLOW RIGHT FACE " ON UNIT 102 AT TIME STEP 10, STRESS PERIOD   5
 UBDSV1 SAVING "FLOW FRONT FACE " ON UNIT 102 AT TIME STEP 10, STRESS PERIOD   5

  HEAD DEP BOUNDS   PERIOD    5   STEP    10
 BOUNDARY      1   LAYER   1   ROW    13   COL     1   RATE   -0.295110    
 BOUNDARY      2   LAYER   1   ROW    14   COL     9   RATE    0.285477    



 STREAM LISTING     PERIOD      5   STEP       10

 LAYER ROW COL. STREAM  RCH.  FLOW INTO     FLOW TO   FLOW OUT OF   OVRLND.     DIRECT     STREAM       STREAM     STREAM     STREAM   STREAMBED  STREAMBED
                SEG.NO.  NO.  STRM. RCH.    AQUIFER    STRM. RCH.    RUNOFF     PRECIP       ET          HEAD       DEPTH      WIDTH   CONDCTNC.   GRADIENT

   1    1    1     1     1    2.8000E+01  2.5860E-01   2.7742E+01  0.000E+00  0.000E+00  0.000E+00  1.09427E+03  1.221E+00  1.361E+01  6.126E-02  1.407E+00
   1    2    2     1     2    2.7742E+01  4.0002E-01   2.7341E+01  0.000E+00  0.000E+00  0.000E+00  1.08928E+03  1.217E+00  1.355E+01  9.487E-02  1.406E+00
   1    3    3     1     3    2.7341E+01  3.4070E-01   2.7001E+01  0.000E+00  0.000E+00  0.000E+00  1.08363E+03  1.212E+00  1.348E+01  8.090E-02  1.404E+00
   1    3    4     1     4    2.7001E+01  3.1335E-01   2.6687E+01  0.000E+00  0.000E+00  0.000E+00  1.07861E+03  1.207E+00  1.342E+01  7.448E-02  1.402E+00
   1    4    5     2     1    2.4687E+01  3.2711E-01   2.4360E+01  0.000E+00  0.000E+00  0.000E+00  1.07313E+03  1.194E+00  1.200E+01  7.800E-02  1.398E+00
   1    5    6     2     2    2.4360E+01  2.5111E-01   2.4109E+01  0.000E+00  0.000E+00  0.000E+00  1.06769E+03  1.185E+00  1.200E+01  6.000E-02  1.395E+00
   1    6    6     2     3    2.4109E+01  2.5067E-01   2.3859E+01  0.000E+00  0.000E+00  0.000E+00  1.06297E+03  1.178E+00  1.200E+01  6.000E-02  1.393E+00
   1    7    6     2     4    2.3859E+01  2.5023E-01   2.3608E+01  0.000E+00  0.000E+00  0.000E+00  1.05825E+03  1.170E+00  1.200E+01  6.000E-02  1.390E+00
   1    8    6     2     5    2.3608E+01  2.4978E-01   2.3359E+01  0.000E+00  0.000E+00  0.000E+00  1.05352E+03  1.163E+00  1.200E+01  6.000E-02  1.388E+00
   1    3    5     3     1    2.0000E+00  2.8252E-01   1.7175E+00  0.000E+00  0.000E+00  0.000E+00  1.07555E+03  1.909E+00  9.636E+00  7.227E-02  1.955E+00
   1    3    6     3     2    1.7175E+00  2.4905E-01   1.4684E+00  0.000E+00  0.000E+00  0.000E+00  1.07264E+03  1.727E+00  8.909E+00  6.682E-02  1.864E+00
   1    3    7     3     3    1.4684E+00  1.9718E-01   1.2712E+00  0.000E+00  0.000E+00  0.000E+00  1.06987E+03  1.555E+00  8.218E+00  5.547E-02  1.777E+00
   1    4    8     3     4    1.2712E+00  2.2567E-01   1.0456E+00  0.000E+00  0.000E+00  0.000E+00  1.06682E+03  1.364E+00  7.455E+00  6.709E-02  1.682E+00
   1    5    8     3     5    1.0456E+00  1.5790E-01   8.8768E-01  0.000E+00  0.000E+00  0.000E+00  1.06362E+03  1.164E+00  6.655E+00  4.991E-02  1.582E+00
   1    6    8     3     6    8.8768E-01  5.5980E-02   8.3170E-01  0.000E+00  0.000E+00  0.000E+00  1.06158E+03  1.036E+00  6.145E+00  1.844E-02  1.518E+00
   1    5   10     4     1    1.0000E+01  9.0919E-02   9.9091E+00  0.000E+00  0.000E+00  0.000E+00  1.07836E+03  6.368E-01  1.000E+01  2.500E-02  1.212E+00
   1    5    9     4     2    9.9091E+00  1.8158E-01   9.7275E+00  0.000E+00  0.000E+00  0.000E+00  1.07154E+03  6.315E-01  1.000E+01  5.000E-02  1.211E+00
   1    6    8     4     3    9.7275E+00  1.2689E-01   9.6006E+00  0.000E+00  0.000E+00  0.000E+00  1.06381E+03  6.256E-01  1.000E+01  3.500E-02  1.209E+00
   1    6    8     5     1    1.0432E+01  2.2686E-01   1.0205E+01  0.000E+00  0.000E+00  0.000E+00  1.05868E+03  6.790E-01  1.542E+01  6.166E-02  1.226E+00
   1    7    7     5     2    1.0205E+01  2.7894E-01   9.9265E+00  0.000E+00  0.000E+00  0.000E+00  1.05417E+03  6.732E-01  1.519E+01  7.594E-02  1.224E+00
   1    8    7     5     3    9.9265E+00  1.9221E-01   9.7343E+00  0.000E+00  0.000E+00  0.000E+00  1.04992E+03  6.676E-01  1.497E+01  5.241E-02  1.223E+00
   1    8    6     5     4    9.7343E+00  1.3577E-01   9.5985E+00  0.000E+00  0.000E+00  0.000E+00  1.04691E+03  6.637E-01  1.482E+01  3.706E-02  1.221E+00
   1    9    6     6     1    3.2957E+01  2.6627E-01   3.2691E+01  0.000E+00  0.000E+00  0.000E+00  1.04417E+03  1.438E+00  1.200E+01  6.000E-02  1.479E+00
   1   10    7     6     2    3.2691E+01  2.6585E-01   3.2425E+01  0.000E+00  0.000E+00  0.000E+00  1.03961E+03  1.431E+00  1.200E+01  6.000E-02  1.477E+00
   1   11    7     6     3    3.2425E+01  2.6542E-01   3.2160E+01  0.000E+00  0.000E+00  0.000E+00  1.03506E+03  1.424E+00  1.200E+01  6.000E-02  1.475E+00
   1   12    7     6     4    3.2160E+01  2.6500E-01   3.1895E+01  0.000E+00  0.000E+00  0.000E+00  1.03051E+03  1.417E+00  1.200E+01  6.000E-02  1.472E+00
   1   13    7     6     5    3.1895E+01  3.4296E-03   3.1891E+01  0.000E+00  0.000E+00  0.000E+00  1.02732E+03  1.413E+00  1.200E+01  2.400E-02  4.763E-02
   1   14    9     7     1    1.5000E+02  1.3317E+00   1.4867E+02  0.000E+00  0.000E+00  0.000E+00  1.03987E+03  2.288E+00  5.529E+01  5.593E-01  7.937E-01
   1   13    8     7     2    1.4867E+02  1.8133E+00   1.4686E+02  0.000E+00  0.000E+00  0.000E+00  1.03478E+03  2.279E+00  5.526E+01  6.148E-01  9.832E-01
   1   13    7     7     3    1.4686E+02  1.4022E+00   1.4545E+02  0.000E+00  0.000E+00  0.000E+00  1.02969E+03  2.271E+00  5.522E+01  5.585E-01  8.369E-01
   1   13    6     8     1    1.7734E+02  8.6106E-01   1.7648E+02  0.000E+00  0.000E+00  0.000E+00  1.02487E+03  2.997E+00  4.345E+01  4.428E-01  6.482E-01
   1   13    5     8     2    1.7648E+02  9.6467E-02   1.7639E+02  0.000E+00  0.000E+00  0.000E+00  1.01862E+03  2.994E+00  4.341E+01  4.423E-01  7.269E-02
   1   13    4     8     3    1.7639E+02 -2.9173E+00   1.7930E+02  0.000E+00  0.000E+00  0.000E+00  1.01238E+03  3.003E+00  4.354E+01  4.437E+00 -2.192E-01
   1   13    3     8     4    1.7930E+02 -4.0239E+00   1.8333E+02  0.000E+00  0.000E+00  0.000E+00  1.00615E+03  3.024E+00  4.385E+01  4.469E+00 -3.001E-01
   1   13    2     8     5    1.8333E+02 -2.9734E+00   1.8630E+02  0.000E+00  0.000E+00  0.000E+00  9.99921E+02  3.046E+00  4.417E+01  4.501E+00 -2.202E-01
   1   13    1     8     6    1.8630E+02 -2.2501E+00   1.8855E+02  0.000E+00  0.000E+00  0.000E+00  9.94937E+02  3.062E+00  4.440E+01  2.715E+00 -2.763E-01



 UBDSV3 SAVING "           GW ET" ON UNIT  61 AT TIME STEP 10, STRESS PERIOD   5
 UBDSV3 SAVING "    UZF RECHARGE" ON UNIT  61 AT TIME STEP 10, STRESS PERIOD   5
 UBDSV3 SAVING " SURFACE LEAKAGE" ON UNIT  61 AT TIME STEP 10, STRESS PERIOD   5
 UBDSV3 SAVING "       HORT+DUNN" ON UNIT  61 AT TIME STEP 10, STRESS PERIOD   5
 UBDSV3 SAVING "  STORAGE CHANGE" ON UNIT  61 AT TIME STEP 10, STRESS PERIOD   5


UNSATURATED ZONE PACKAGE VOLUMETRIC BUDGET FOR  TIME STEP    10 STRESS PERIOD    5
  ------------------------------------------------------------------------------



     CUMULATIVE VOLUMES      L**3       RATES FOR THIS TIME STEP      L**3/T
     ------------------                 ------------------------

           IN:                                      IN:
           ---                                      ---
        INFILTRATION =    10764265.6005          INFILTRATION =           4.5675

          OUT:                                     OUT:
          ----                                     ----
              UZF ET =    10690364.4526                UZF ET =           4.5675
        UZF RECHARGE =       73224.0000          UZF RECHARGE =       0.0000E+00

            IN - OUT =         677.1479              IN - OUT =       0.0000E+00

          STORAGE:                                 STORAGE:
          --------                                 --------
      STORAGE CHANGE =         677.2276        STORAGE CHANGE =       8.4368E-15

 PERCENT DISCREPANCY IS DIFFERENCE BETWEEN IN-OUT MINUS CHANGE IN STORAGE
 DIVIDED BY THE AVERAGE OF IN AND OUT TIMES 100

 PERCENT DISCREPANCY =           0.00     PERCENT DISCREPANCY =           0.00






 

            AG WELLS      PERIOD    5   STEP  10
 AG WELL      1   LAYER   1   ROW     6   COL     4   RATE   -0.620000    
 AG WELL      2   LAYER   1   ROW     6   COL     5   RATE   -0.620000    
 AG WELL      3   LAYER   1   ROW     7   COL     4   RATE   -0.620000    
 AG WELL      4   LAYER   1   ROW     7   COL     5   RATE   -0.620000    
 AG WELL      5   LAYER   1   ROW     8   COL     4   RATE   -0.620000    
 AG WELL      6   LAYER   1   ROW     8   COL     5   RATE   -0.620000    
 
 

        GW IRRIGATION     PERIOD    5   STEP  10
 AG WELL      1   ROW     6   COL     4   RATE    0.620000    
 AG WELL      2   ROW     6   COL     5   RATE    0.620000    
 AG WELL      3   ROW     7   COL     4   RATE    0.620000    
 AG WELL      4   ROW     7   COL     5   RATE    0.620000    
 AG WELL      5   ROW     8   COL     4   RATE    0.620000    
 AG WELL      6   ROW     8   COL     5   RATE    0.620000    
 
1
  VOLUMETRIC BUDGET FOR AGRICULTURAL FIELDS AT  END OF TIME STEP   10, STRESS PERIOD   5
  ------------------------------------------------------------------------------

     CUMULATIVE VOLUMES      L**3       RATES FOR THIS TIME STEP      L**3/T
     ------------------                 ------------------------

           IN:                                      IN:
           ---                                      ---
               AG WELLS  =     3261292.0000                 AG WELLS  =           3.7200
      DIVERSION SEGMENTS =           0.0000        DIVERSION SEGMENTS =           0.0000
           GW IRRIGATION =           0.0000             GW IRRIGATION =           0.0000
           SW IRRIGATION =           0.0000             SW IRRIGATION =           0.0000
        SYSTEM LOSSES GW =           0.0000          SYSTEM LOSSES GW =           0.0000
        SYSTEM LOSSES SW =           0.0000          SYSTEM LOSSES SW =           0.0000

                TOTAL IN =     3261292.0000                  TOTAL IN =           3.7200

          OUT:                                     OUT:
          ----                                     ----
               AG WELLS  =           0.0000                 AG WELLS  =           0.0000
      DIVERSION SEGMENTS =           0.0000        DIVERSION SEGMENTS =           0.0000
           GW IRRIGATION =     3261292.0000             GW IRRIGATION =           3.7200
           SW IRRIGATION =           0.0000             SW IRRIGATION =           0.0000
        SYSTEM LOSSES GW =           0.0000          SYSTEM LOSSES GW =           0.0000
        SYSTEM LOSSES SW =           0.0000          SYSTEM LOSSES SW =           0.0000

               TOTAL OUT =     3261292.0000                 TOTAL OUT =           3.7200

                IN - OUT =           0.0000                  IN - OUT =           0.0000

     PERCENT DISCREPANCY =           0.00         PERCENT DISCREPANCY =           0.00



1
  VOLUMETRIC BUDGET FOR ENTIRE MODEL AT END OF TIME STEP   10, STRESS PERIOD   5
  ------------------------------------------------------------------------------

     CUMULATIVE VOLUMES      L**3       RATES FOR THIS TIME STEP      L**3/T
     ------------------                 ------------------------

           IN:                                      IN:
           ---                                      ---
             STORAGE     =     9828774.0000               STORAGE     =           5.5209
       CONSTANT HEAD     =           0.0000         CONSTANT HEAD     =           0.0000
     HEAD DEP BOUNDS     =     2526887.0000       HEAD DEP BOUNDS     =           0.2855
      STREAM LEAKAGE     =   109152240.0000        STREAM LEAKAGE     =          11.6137
        UZF RECHARGE     =       73223.9531          UZF RECHARGE     =           0.0000
               GW ET     =           0.0000                 GW ET     =           0.0000
     SURFACE LEAKAGE     =           0.0000       SURFACE LEAKAGE     =           0.0000
           AG WELLS      =           0.0000             AG WELLS      =           0.0000

                TOTAL IN =   121581128.0000                  TOTAL IN =          17.4201

          OUT:                                     OUT:
          ----                                     ----
             STORAGE     =    23501786.0000               STORAGE     =           1.1336
       CONSTANT HEAD     =           0.0000         CONSTANT HEAD     =           0.0000
     HEAD DEP BOUNDS     =     2587272.2500       HEAD DEP BOUNDS     =           0.2951
      STREAM LEAKAGE     =    92050584.0000        STREAM LEAKAGE     =          12.1647
        UZF RECHARGE     =           0.0000          UZF RECHARGE     =           0.0000
               GW ET     =      184367.0000                 GW ET     =           0.1054
     SURFACE LEAKAGE     =           0.0000       SURFACE LEAKAGE     =           0.0000
           AG WELLS      =     3261292.0000             AG WELLS      =           3.7200

               TOTAL OUT =   121585296.0000                 TOTAL OUT =          17.4188

                IN - OUT =       -4168.0000                  IN - OUT =       1.2646E-03

     PERCENT DISCREPANCY =          -0.00         PERCENT DISCREPANCY =           0.01






         TIME SUMMARY AT END OF TIME STEP   10 IN STRESS PERIOD    5
                    SECONDS     MINUTES      HOURS       DAYS        YEARS
                    -----------------------------------------------------------
   TIME STEP LENGTH  87667.      1461.1      24.352      1.0147     2.77799E-03
 STRESS PERIOD TIME 8.76667E+05  14611.      243.52      10.147     2.77799E-02
         TOTAL TIME 8.85306E+06 1.47551E+05  2459.2      102.47     0.28054    
1
 
 SOLVING FOR HEAD 
                                                   Max.-Head-Change                         Max.-Flux-Residual
  Residual-Control   Outer-Iter.   Inner-Iter.     Column Row Layer    Maximum-Head-Change  Column Row Layer    Maximum-Flux-Residual          L2-NORM 
          0                 1           2             4    7     1      -0.1087771167E-01       4    7    1        -0.5701062752E+00      0.1466582549E+01
          0                 2           2             4    7     1       0.1058103047E-02       4    7    1         0.5701051863E-01      0.1457817637E+00
          0                 3           1             4    7     1      -0.7205291190E-04       4    7    1        -0.3990739063E-02      0.1012357925E-01

    ------------------------------------------------
       NWT REQUIRED            3 OUTER ITERATIONS 
       AND A TOTAL OF          5 INNER ITERATIONS.
    ------------------------------------------------

 NO OUTPUT CONTROL FOR STRESS PERIOD    5   TIME STEP   11
 
 SOLVING FOR HEAD 
                                                   Max.-Head-Change                         Max.-Flux-Residual
  Residual-Control   Outer-Iter.   Inner-Iter.     Column Row Layer    Maximum-Head-Change  Column Row Layer    Maximum-Flux-Residual          L2-NORM 
          0                 1           2             4    7     1      -0.1078163795E-01       4    7    1        -0.5652013578E+00      0.1423934226E+01
          0                 2           2             4    7     1       0.1048757668E-02       4    7    1         0.5652002491E-01      0.1416391801E+00
          0                 3           1             4    7     1      -0.7141652682E-04       4    7    1        -0.3956404509E-02      0.9845678338E-02

    ------------------------------------------------
       NWT REQUIRED            3 OUTER ITERATIONS 
       AND A TOTAL OF          5 INNER ITERATIONS.
    ------------------------------------------------

 NO OUTPUT CONTROL FOR STRESS PERIOD    5   TIME STEP   12
 
 SOLVING FOR HEAD 
                                                   Max.-Head-Change                         Max.-Flux-Residual
  Residual-Control   Outer-Iter.   Inner-Iter.     Column Row Layer    Maximum-Head-Change  Column Row Layer    Maximum-Flux-Residual          L2-NORM 
          0                 1           2             4    7     1      -0.1068433506E-01       4    7    1        -0.5602199551E+00      0.1385629120E+01
          0                 2           2             4    7     1       0.1039292730E-02       4    7    1         0.5602188305E-01      0.1379101903E+00
          0                 3           1             4    7     1      -0.7077199995E-04       4    7    1        -0.3921534573E-02      0.9593474777E-02

    ------------------------------------------------
       NWT REQUIRED            3 OUTER ITERATIONS 
       AND A TOTAL OF          5 INNER ITERATIONS.
    ------------------------------------------------

 NO OUTPUT CONTROL FOR STRESS PERIOD    5   TIME STEP   13
 
 SOLVING FOR HEAD 
                                                   Max.-Head-Change                         Max.-Flux-Residual
  Residual-Control   Outer-Iter.   Inner-Iter.     Column Row Layer    Maximum-Head-Change  Column Row Layer    Maximum-Flux-Residual          L2-NORM 
          0                 1           2             4    7     1      -0.1058548540E-01       4    7    1        -0.5551451635E+00      0.1351062837E+01
          0                 2           2             4    7     1       0.1029677338E-02       4    7    1         0.5551440271E-01      0.1345433737E+00
          0                 3           1             4    7     1      -0.7011722748E-04       4    7    1        -0.3886010938E-02      0.9366241768E-02

    ------------------------------------------------
       NWT REQUIRED            3 OUTER ITERATIONS 
       AND A TOTAL OF          5 INNER ITERATIONS.
    ------------------------------------------------

 NO OUTPUT CONTROL FOR STRESS PERIOD    5   TIME STEP   14
 
 SOLVING FOR HEAD 
                                                   Max.-Head-Change                         Max.-Flux-Residual
  Residual-Control   Outer-Iter.   Inner-Iter.     Column Row Layer    Maximum-Head-Change  Column Row Layer    Maximum-Flux-Residual          L2-NORM 
          0                 1           2             4    7     1      -0.1048586367E-01       4    7    1        -0.5500198377E+00      0.1319739996E+01
          0                 2           2             4    7     1       0.1019986849E-02       4    7    1         0.5500186925E-01      0.1314885280E+00
          0                 3           1             4    7     1      -0.6945734146E-04       4    7    1        -0.3850133588E-02      0.9159158669E-02

    ------------------------------------------------
       NWT REQUIRED            3 OUTER ITERATIONS 
       AND A TOTAL OF          5 INNER ITERATIONS.
    ------------------------------------------------

 NO OUTPUT CONTROL FOR STRESS PERIOD    5   TIME STEP   15
 
 SOLVING FOR HEAD 
                                                   Max.-Head-Change                         Max.-Flux-Residual
  Residual-Control   Outer-Iter.   Inner-Iter.     Column Row Layer    Maximum-Head-Change  Column Row Layer    Maximum-Flux-Residual          L2-NORM 
          0                 1           2             4    7     1      -0.1038538188E-01       4    7    1        -0.5448396543E+00      0.1291213054E+01
          0                 2           2             4    7     1       0.1010212706E-02       4    7    1         0.5448385035E-01      0.1287026367E+00
          0                 3           1             4    7     1      -0.6879175894E-04       4    7    1        -0.3813872271E-02      0.8970997577E-02

    ------------------------------------------------
       NWT REQUIRED            3 OUTER ITERATIONS 
       AND A TOTAL OF          5 INNER ITERATIONS.
    ------------------------------------------------

 NO OUTPUT CONTROL FOR STRESS PERIOD    5   TIME STEP   16
 
 SOLVING FOR HEAD 
                                                   Max.-Head-Change                         Max.-Flux-Residual
  Residual-Control   Outer-Iter.   Inner-Iter.     Column Row Layer    Maximum-Head-Change  Column Row Layer    Maximum-Flux-Residual          L2-NORM 
          0                 1           2             4    7     1      -0.1028451077E-01       4    7    1        -0.5396297104E+00      0.1265130032E+01
          0                 2           2             4    7     1       0.1000400695E-02       4    7    1         0.5396285568E-01      0.1261523867E+00
          0                 3           1             4    7     1      -0.6812359740E-04       4    7    1        -0.3777402638E-02      0.8797034762E-02

    ------------------------------------------------
       NWT REQUIRED            3 OUTER ITERATIONS 
       AND A TOTAL OF          5 INNER ITERATIONS.
    ------------------------------------------------

 NO OUTPUT CONTROL FOR STRESS PERIOD    5   TIME STEP   17
 
 SOLVING FOR HEAD 
                                                   Max.-Head-Change                         Max.-Flux-Residual
  Residual-Control   Outer-Iter.   Inner-Iter.     Column Row Layer    Maximum-Head-Change  Column Row Layer    Maximum-Flux-Residual          L2-NORM 
          0                 1           2             4    7     1      -0.1018285555E-01       4    7    1        -0.5343699250E+00      0.1241145477E+01
          0                 2           2             4    7     1       0.9905124168E-03       4    7    1         0.5343687716E-01      0.1238035503E+00
          0                 3           1             4    7     1      -0.6745024206E-04       4    7    1        -0.3740584104E-02      0.8637609515E-02

    ------------------------------------------------
       NWT REQUIRED            3 OUTER ITERATIONS 
       AND A TOTAL OF          5 INNER ITERATIONS.
    ------------------------------------------------

 NO OUTPUT CONTROL FOR STRESS PERIOD    5   TIME STEP   18
 
 SOLVING FOR HEAD 
                                                   Max.-Head-Change                         Max.-Flux-Residual
  Residual-Control   Outer-Iter.   Inner-Iter.     Column Row Layer    Maximum-Head-Change  Column Row Layer    Maximum-Flux-Residual          L2-NORM 
          0                 1           2             4    7     1      -0.1008115026E-01       4    7    1        -0.5290991459E+00      0.1219023867E+01
          0                 2           2             4    7     1       0.9806192702E-03       4    7    1         0.5290979947E-01      0.1216343341E+00
          0                 3           1             4    7     1      -0.6677655562E-04       4    7    1        -0.3703688661E-02      0.8489538982E-02

    ------------------------------------------------
       NWT REQUIRED            3 OUTER ITERATIONS 
       AND A TOTAL OF          5 INNER ITERATIONS.
    ------------------------------------------------

 NO OUTPUT CONTROL FOR STRESS PERIOD    5   TIME STEP   19
 
 SOLVING FOR HEAD 
                                                   Max.-Head-Change                         Max.-Flux-Residual
  Residual-Control   Outer-Iter.   Inner-Iter.     Column Row Layer    Maximum-Head-Change  Column Row Layer    Maximum-Flux-Residual          L2-NORM 
          0                 1           2             4    7     1      -0.9979243690E-02       4    7    1        -0.5238109442E+00      0.1198497477E+01
          0                 2           2             4    7     1       0.9707065476E-03       4    7    1         0.5238097970E-01      0.1196181849E+00
          0                 3           1             4    7     1      -0.6610153575E-04       4    7    1        -0.3666671243E-02      0.8351831437E-02

    ------------------------------------------------
       NWT REQUIRED            3 OUTER ITERATIONS 
       AND A TOTAL OF          5 INNER ITERATIONS.
    ------------------------------------------------

 NO OUTPUT CONTROL FOR STRESS PERIOD    5   TIME STEP   20
 
 SOLVING FOR HEAD 
                                                   Max.-Head-Change                         Max.-Flux-Residual
  Residual-Control   Outer-Iter.   Inner-Iter.     Column Row Layer    Maximum-Head-Change  Column Row Layer    Maximum-Flux-Residual          L2-NORM 
          0                 1           2             4    7     1      -0.9877283669E-02       4    7    1        -0.5185123094E+00      0.1179389978E+01
          0                 2           2             4    7     1       0.9607886290E-03       4    7    1         0.5185111685E-01      0.1177232444E+00
          0                 3           1             4    7     1      -0.6542616254E-04       4    7    1        -0.3629580836E-02      0.8226706885E-02

    ------------------------------------------------
       NWT REQUIRED            3 OUTER ITERATIONS 
       AND A TOTAL OF          5 INNER ITERATIONS.
    ------------------------------------------------

 NO OUTPUT CONTROL FOR STRESS PERIOD    5   TIME STEP   21
 
 SOLVING FOR HEAD 
                                                   Max.-Head-Change                         Max.-Flux-Residual
  Residual-Control   Outer-Iter.   Inner-Iter.     Column Row Layer    Maximum-Head-Change  Column Row Layer    Maximum-Flux-Residual          L2-NORM 
          0                 1           2             4    7     1      -0.9775663987E-02       4    7    1        -0.5132257337E+00      0.1161531531E+01
          0                 2           2             4    7     1       0.9509038178E-03       4    7    1         0.5132246004E-01      0.1158245421E+00
          0                 3           1             4    7     1      -0.6475304293E-04       4    7    1        -0.3592574813E-02      0.8092693039E-02

    ------------------------------------------------
       NWT REQUIRED            3 OUTER ITERATIONS 
       AND A TOTAL OF          5 INNER ITERATIONS.
    ------------------------------------------------

 NO OUTPUT CONTROL FOR STRESS PERIOD    5   TIME STEP   22
 
 SOLVING FOR HEAD 
                                                   Max.-Head-Change                         Max.-Flux-Residual
  Residual-Control   Outer-Iter.   Inner-Iter.     Column Row Layer    Maximum-Head-Change  Column Row Layer    Maximum-Flux-Residual          L2-NORM 
          0                 1           2             4    7     1      -0.9674215787E-02       4    7    1        -0.5079419787E+00      0.1144899716E+01
          0                 2           2             4    7     1       0.9410356895E-03       4    7    1         0.5079408546E-01      0.1143391501E+00
          0                 3           1             4    7     1      -0.6408106006E-04       4    7    1        -0.3555588574E-02      0.7989923036E-02

    ------------------------------------------------
       NWT REQUIRED            3 OUTER ITERATIONS 
       AND A TOTAL OF          5 INNER ITERATIONS.
    ------------------------------------------------

 NO OUTPUT CONTROL FOR STRESS PERIOD    5   TIME STEP   23
 
 SOLVING FOR HEAD 
                                                   Max.-Head-Change                         Max.-Flux-Residual
  Residual-Control   Outer-Iter.   Inner-Iter.     Column Row Layer    Maximum-Head-Change  Column Row Layer    Maximum-Flux-Residual          L2-NORM 
          0                 1           2             4    7     1      -0.9573042565E-02       4    7    1        -0.5026671173E+00      0.1129199236E+01
          0                 2           2             4    7     1       0.9311976931E-03       4    7    1         0.5026660037E-01      0.1127868073E+00
          0                 3           1             4    7     1      -0.6341441914E-04       4    7    1        -0.3518664598E-02      0.7888166388E-02

    ------------------------------------------------
       NWT REQUIRED            3 OUTER ITERATIONS 
       AND A TOTAL OF          5 INNER ITERATIONS.
    ------------------------------------------------

 NO OUTPUT CONTROL FOR STRESS PERIOD    5   TIME STEP   24
 
 SOLVING FOR HEAD 
                                                   Max.-Head-Change                         Max.-Flux-Residual
  Residual-Control   Outer-Iter.   Inner-Iter.     Column Row Layer    Maximum-Head-Change  Column Row Layer    Maximum-Flux-Residual          L2-NORM 
          0                 1           2             4    7     1      -0.9472245710E-02       4    7    1        -0.4974065236E+00      0.1114342124E+01
          0                 2           2             4    7     1       0.9213459301E-03       4    7    1         0.4974054215E-01      0.1112545590E+00
          0                 3           1             4    7     1      -0.6274026029E-04       4    7    1        -0.3481840503E-02      0.7776999193E-02

    ------------------------------------------------
       NWT REQUIRED            3 OUTER ITERATIONS 
       AND A TOTAL OF          5 INNER ITERATIONS.
    ------------------------------------------------

 NO OUTPUT CONTROL FOR STRESS PERIOD    5   TIME STEP   25
 
 SOLVING FOR HEAD 
                                                   Max.-Head-Change                         Max.-Flux-Residual
  Residual-Control   Outer-Iter.   Inner-Iter.     Column Row Layer    Maximum-Head-Change  Column Row Layer    Maximum-Flux-Residual          L2-NORM 
          0                 1           2             4    7     1      -0.9372318240E-02       4    7    1        -0.4921825752E+00      0.1100298389E+01
          0                 2           2             4    7     1       0.9116693527E-03       4    7    1         0.4921814870E-01      0.1099303188E+00
          0                 3           1             4    7     1      -0.6208132072E-04       4    7    1        -0.3445272926E-02      0.7686105691E-02

    ------------------------------------------------
       NWT REQUIRED            3 OUTER ITERATIONS 
       AND A TOTAL OF          5 INNER ITERATIONS.
    ------------------------------------------------

 NO OUTPUT CONTROL FOR STRESS PERIOD    5   TIME STEP   26
 
 SOLVING FOR HEAD 
                                                   Max.-Head-Change                         Max.-Flux-Residual
  Residual-Control   Outer-Iter.   Inner-Iter.     Column Row Layer    Maximum-Head-Change  Column Row Layer    Maximum-Flux-Residual          L2-NORM 
          0                 1           2             4    7     1      -0.9272912888E-02       4    7    1        -0.4869842515E+00      0.1086933055E+01
          0                 2           2             4    7     1       0.9019999440E-03       4    7    1         0.4869831771E-01      0.1086064424E+00
          0                 3           1             4    7     1      -0.6142287012E-04       4    7    1        -0.3408884737E-02      0.7594604707E-02

    ------------------------------------------------
       NWT REQUIRED            3 OUTER ITERATIONS 
       AND A TOTAL OF          5 INNER ITERATIONS.
    ------------------------------------------------

 NO OUTPUT CONTROL FOR STRESS PERIOD    5   TIME STEP   27
 
 SOLVING FOR HEAD 
                                                   Max.-Head-Change                         Max.-Flux-Residual
  Residual-Control   Outer-Iter.   Inner-Iter.     Column Row Layer    Maximum-Head-Change  Column Row Layer    Maximum-Flux-Residual          L2-NORM 
          0                 1           2             4    7     1      -0.9174139495E-02       4    7    1        -0.4818153190E+00      0.1074168551E+01
          0                 2           2             4    7     1       0.8923920085E-03       4    7    1         0.4818142591E-01      0.1073408083E+00
          0                 3           1             4    7     1      -0.6076860532E-04       4    7    1        -0.3372702279E-02      0.7506875188E-02

    ------------------------------------------------
       NWT REQUIRED            3 OUTER ITERATIONS 
       AND A TOTAL OF          5 INNER ITERATIONS.
    ------------------------------------------------

 NO OUTPUT CONTROL FOR STRESS PERIOD    5   TIME STEP   28
 
 SOLVING FOR HEAD 
                                                   Max.-Head-Change                         Max.-Flux-Residual
  Residual-Control   Outer-Iter.   Inner-Iter.     Column Row Layer    Maximum-Head-Change  Column Row Layer    Maximum-Flux-Residual          L2-NORM 
          0                 1           2             4    7     1      -0.9075968771E-02       4    7    1        -0.4766791548E+00      0.1146329946E+01
          0                 2           2             4    7     1       0.8828426972E-03       4    7    1         0.4766781095E-01      0.1142266354E+00
          0                 3           1             4    7     1      -0.6011833154E-04       4    7    1        -0.3336749203E-02      0.7959172325E-02

    ------------------------------------------------
       NWT REQUIRED            3 OUTER ITERATIONS 
       AND A TOTAL OF          5 INNER ITERATIONS.
    ------------------------------------------------

 NO OUTPUT CONTROL FOR STRESS PERIOD    5   TIME STEP   29
 
 SOLVING FOR HEAD 
                                                   Max.-Head-Change                         Max.-Flux-Residual
  Residual-Control   Outer-Iter.   Inner-Iter.     Column Row Layer    Maximum-Head-Change  Column Row Layer    Maximum-Flux-Residual          L2-NORM 
          0                 1           2             4   13     1       0.2591957939E-01       4   13    1         0.1501293787E+01      0.2844525116E+01
          0                 2           2             4   13     1      -0.2882546123E-02       4   13    1        -0.1752362754E+00      0.2921550519E+00
          0                 3           2             4   13     1       0.1933605659E-03       4   13    1         0.1208621188E-01      0.1971904030E-01
          0                 4           1             4   13     1      -0.7502092174E-05       4   13    1        -0.4821831963E-03      0.7603334001E-03

    ------------------------------------------------
       NWT REQUIRED            4 OUTER ITERATIONS 
       AND A TOTAL OF          7 INNER ITERATIONS.
    ------------------------------------------------

 NO OUTPUT CONTROL FOR STRESS PERIOD    5   TIME STEP   30



 STREAM LISTING     PERIOD      5   STEP       30

 LAYER ROW COL. STREAM  RCH.  FLOW INTO     FLOW TO   FLOW OUT OF   OVRLND.     DIRECT     STREAM       STREAM     STREAM     STREAM   STREAMBED  STREAMBED
                SEG.NO.  NO.  STRM. RCH.    AQUIFER    STRM. RCH.    RUNOFF     PRECIP       ET          HEAD       DEPTH      WIDTH   CONDCTNC.   GRADIENT

   1    1    1     1     1    9.9000E+01  4.7281E-01   9.8528E+01  0.000E+00  0.000E+00  0.000E+00  1.09484E+03  1.796E+00  2.191E+01  9.859E-02  1.599E+00
   1    2    2     1     2    9.8528E+01  7.3365E-01   9.7794E+01  0.000E+00  0.000E+00  0.000E+00  1.08985E+03  1.793E+00  2.187E+01  1.531E-01  1.598E+00
   1    3    3     1     3    9.7794E+01  6.2707E-01   9.7167E+01  0.000E+00  0.000E+00  0.000E+00  1.08421E+03  1.791E+00  2.181E+01  1.309E-01  1.597E+00
   1    3    4     1     4    9.7167E+01  5.7859E-01   9.6588E+01  0.000E+00  0.000E+00  0.000E+00  1.07920E+03  1.789E+00  2.177E+01  1.208E-01  1.596E+00
   1    4    5     2     1    9.4588E+01  4.4299E-01   9.4145E+01  0.000E+00  0.000E+00  0.000E+00  1.07461E+03  2.679E+00  1.200E+01  7.800E-02  1.893E+00
   1    5    6     2     2    9.4145E+01  3.4036E-01   9.3805E+01  0.000E+00  0.000E+00  0.000E+00  1.06918E+03  2.673E+00  1.200E+01  6.000E-02  1.891E+00
   1    6    6     2     3    9.3805E+01  3.4001E-01   9.3465E+01  0.000E+00  0.000E+00  0.000E+00  1.06446E+03  2.667E+00  1.200E+01  6.000E-02  1.889E+00
   1    7    6     2     4    9.3465E+01  3.3967E-01   9.3125E+01  0.000E+00  0.000E+00  0.000E+00  1.05974E+03  2.661E+00  1.200E+01  6.000E-02  1.887E+00
   1    8    6     2     5    9.3125E+01  3.3932E-01   9.2786E+01  0.000E+00  0.000E+00  0.000E+00  1.05501E+03  2.655E+00  1.200E+01  6.000E-02  1.885E+00
   1    3    5     3     1    2.0000E+00  2.8252E-01   1.7175E+00  0.000E+00  0.000E+00  0.000E+00  1.07555E+03  1.909E+00  9.636E+00  7.227E-02  1.955E+00
   1    3    6     3     2    1.7175E+00  2.4905E-01   1.4684E+00  0.000E+00  0.000E+00  0.000E+00  1.07264E+03  1.727E+00  8.909E+00  6.682E-02  1.864E+00
   1    3    7     3     3    1.4684E+00  1.9718E-01   1.2712E+00  0.000E+00  0.000E+00  0.000E+00  1.06987E+03  1.555E+00  8.218E+00  5.547E-02  1.777E+00
   1    4    8     3     4    1.2712E+00  2.2567E-01   1.0456E+00  0.000E+00  0.000E+00  0.000E+00  1.06682E+03  1.364E+00  7.455E+00  6.709E-02  1.682E+00
   1    5    8     3     5    1.0456E+00  1.5790E-01   8.8768E-01  0.000E+00  0.000E+00  0.000E+00  1.06362E+03  1.164E+00  6.655E+00  4.991E-02  1.582E+00
   1    6    8     3     6    8.8768E-01  5.5980E-02   8.3170E-01  0.000E+00  0.000E+00  0.000E+00  1.06158E+03  1.036E+00  6.145E+00  1.844E-02  1.518E+00
   1    5   10     4     1    1.0000E+01  9.0919E-02   9.9091E+00  0.000E+00  0.000E+00  0.000E+00  1.07836E+03  6.368E-01  1.000E+01  2.500E-02  1.212E+00
   1    5    9     4     2    9.9091E+00  1.8158E-01   9.7275E+00  0.000E+00  0.000E+00  0.000E+00  1.07154E+03  6.315E-01  1.000E+01  5.000E-02  1.211E+00
   1    6    8     4     3    9.7275E+00  1.2689E-01   9.6006E+00  0.000E+00  0.000E+00  0.000E+00  1.06381E+03  6.256E-01  1.000E+01  3.500E-02  1.209E+00
   1    6    8     5     1    1.0432E+01  2.2686E-01   1.0205E+01  0.000E+00  0.000E+00  0.000E+00  1.05868E+03  6.790E-01  1.542E+01  6.166E-02  1.226E+00
   1    7    7     5     2    1.0205E+01  2.7894E-01   9.9265E+00  0.000E+00  0.000E+00  0.000E+00  1.05417E+03  6.732E-01  1.519E+01  7.594E-02  1.224E+00
   1    8    7     5     3    9.9265E+00  1.9221E-01   9.7343E+00  0.000E+00  0.000E+00  0.000E+00  1.04992E+03  6.676E-01  1.497E+01  5.241E-02  1.223E+00
   1    8    6     5     4    9.7343E+00  1.3577E-01   9.5985E+00  0.000E+00  0.000E+00  0.000E+00  1.04691E+03  6.637E-01  1.482E+01  3.706E-02  1.221E+00
   1    9    6     6     1    1.0238E+02  3.5054E-01   1.0203E+02  0.000E+00  0.000E+00  0.000E+00  1.04557E+03  2.842E+00  1.200E+01  6.000E-02  1.947E+00
   1   10    7     6     2    1.0203E+02  3.5018E-01   1.0168E+02  0.000E+00  0.000E+00  0.000E+00  1.04102E+03  2.836E+00  1.200E+01  6.000E-02  1.945E+00
   1   11    7     6     3    1.0168E+02  3.4983E-01   1.0133E+02  0.000E+00  0.000E+00  0.000E+00  1.03647E+03  2.831E+00  1.200E+01  6.000E-02  1.944E+00
   1   12    7     6     4    1.0133E+02  3.4948E-01   1.0098E+02  0.000E+00  0.000E+00  0.000E+00  1.03192E+03  2.825E+00  1.200E+01  6.000E-02  1.942E+00
   1   13    7     6     5    1.0098E+02  3.7134E-02   1.0095E+02  0.000E+00  0.000E+00  0.000E+00  1.02873E+03  2.821E+00  1.200E+01  2.400E-02  5.158E-01
   1   14    9     7     1    1.5000E+02  1.3318E+00   1.4867E+02  0.000E+00  0.000E+00  0.000E+00  1.03987E+03  2.288E+00  5.529E+01  5.593E-01  7.937E-01
   1   13    8     7     2    1.4867E+02  1.8109E+00   1.4686E+02  0.000E+00  0.000E+00  0.000E+00  1.03478E+03  2.279E+00  5.526E+01  6.148E-01  9.819E-01
   1   13    7     7     3    1.4686E+02  1.4000E+00   1.4546E+02  0.000E+00  0.000E+00  0.000E+00  1.02969E+03  2.271E+00  5.522E+01  5.585E-01  8.356E-01
   1   13    6     8     1    2.4640E+02  1.1761E+00   2.4523E+02  0.000E+00  0.000E+00  0.000E+00  1.02527E+03  3.390E+00  4.916E+01  5.009E-01  7.827E-01
   1   13    5     8     2    2.4523E+02  3.1457E-01   2.4491E+02  0.000E+00  0.000E+00  0.000E+00  1.01901E+03  3.386E+00  4.910E+01  5.003E-01  2.096E-01
   1   13    4     8     3    2.4491E+02 -1.2778E+00   2.4619E+02  0.000E+00  0.000E+00  0.000E+00  1.01276E+03  3.389E+00  4.914E+01  5.007E+00 -8.506E-02
   1   13    3     8     4    2.4619E+02 -2.5237E+00   2.4872E+02  0.000E+00  0.000E+00  0.000E+00  1.00652E+03  3.399E+00  4.928E+01  5.022E+00 -1.675E-01
   1   13    2     8     5    2.4872E+02 -1.3006E+00   2.5002E+02  0.000E+00  0.000E+00  0.000E+00  1.00028E+03  3.408E+00  4.942E+01  5.036E+00 -8.609E-02
   1   13    1     8     6    2.5002E+02 -1.2936E+00   2.5131E+02  0.000E+00  0.000E+00  0.000E+00  9.95290E+02  3.415E+00  4.952E+01  3.028E+00 -1.424E-01





UNSATURATED ZONE PACKAGE VOLUMETRIC BUDGET FOR  TIME STEP    30 STRESS PERIOD    5
  ------------------------------------------------------------------------------



     CUMULATIVE VOLUMES      L**3       RATES FOR THIS TIME STEP      L**3/T
     ------------------                 ------------------------

           IN:                                      IN:
           ---                                      ---
        INFILTRATION =    18772615.2056          INFILTRATION =           4.5675

          OUT:                                     OUT:
          ----                                     ----
              UZF ET =    18698714.0577                UZF ET =           4.5675
        UZF RECHARGE =       73224.0000          UZF RECHARGE =       0.0000E+00

            IN - OUT =         677.1479              IN - OUT =       0.0000E+00

          STORAGE:                                 STORAGE:
          --------                                 --------
      STORAGE CHANGE =         677.2276        STORAGE CHANGE =       8.4376E-15

 PERCENT DISCREPANCY IS DIFFERENCE BETWEEN IN-OUT MINUS CHANGE IN STORAGE
 DIVIDED BY THE AVERAGE OF IN AND OUT TIMES 100

 PERCENT DISCREPANCY =           0.00     PERCENT DISCREPANCY =           0.00






1
  VOLUMETRIC BUDGET FOR AGRICULTURAL FIELDS AT  END OF TIME STEP   30, STRESS PERIOD   5
  ------------------------------------------------------------------------------

     CUMULATIVE VOLUMES      L**3       RATES FOR THIS TIME STEP      L**3/T
     ------------------                 ------------------------

           IN:                                      IN:
           ---                                      ---
               AG WELLS  =     9783692.0000                 AG WELLS  =           3.7200
      DIVERSION SEGMENTS =           0.0000        DIVERSION SEGMENTS =           0.0000
           GW IRRIGATION =           0.0000             GW IRRIGATION =           0.0000
           SW IRRIGATION =           0.0000             SW IRRIGATION =           0.0000
        SYSTEM LOSSES GW =           0.0000          SYSTEM LOSSES GW =           0.0000
        SYSTEM LOSSES SW =           0.0000          SYSTEM LOSSES SW =           0.0000

                TOTAL IN =     9783692.0000                  TOTAL IN =           3.7200

          OUT:                                     OUT:
          ----                                     ----
               AG WELLS  =           0.0000                 AG WELLS  =           0.0000
      DIVERSION SEGMENTS =           0.0000        DIVERSION SEGMENTS =           0.0000
           GW IRRIGATION =     9783692.0000             GW IRRIGATION =           3.7200
           SW IRRIGATION =           0.0000             SW IRRIGATION =           0.0000
        SYSTEM LOSSES GW =           0.0000          SYSTEM LOSSES GW =           0.0000
        SYSTEM LOSSES SW =           0.0000          SYSTEM LOSSES SW =           0.0000

               TOTAL OUT =     9783692.0000                 TOTAL OUT =           3.7200

                IN - OUT =           0.0000                  IN - OUT =           0.0000

     PERCENT DISCREPANCY =           0.00         PERCENT DISCREPANCY =           0.00



1
  VOLUMETRIC BUDGET FOR ENTIRE MODEL AT END OF TIME STEP   30, STRESS PERIOD   5
  ------------------------------------------------------------------------------

     CUMULATIVE VOLUMES      L**3       RATES FOR THIS TIME STEP      L**3/T
     ------------------                 ------------------------

           IN:                                      IN:
           ---                                      ---
             STORAGE     =    17889418.0000               STORAGE     =           3.4383
       CONSTANT HEAD     =           0.0000         CONSTANT HEAD     =           0.0000
     HEAD DEP BOUNDS     =     3027432.2500       HEAD DEP BOUNDS     =           0.2855
      STREAM LEAKAGE     =   129797984.0000        STREAM LEAKAGE     =          14.0865
        UZF RECHARGE     =       73223.9531          UZF RECHARGE     =           0.0000
               GW ET     =           0.0000                 GW ET     =           0.0000
     SURFACE LEAKAGE     =           0.0000       SURFACE LEAKAGE     =           0.0000
           AG WELLS      =           0.0000             AG WELLS      =           0.0000

                TOTAL IN =   150788048.0000                  TOTAL IN =          17.8103

          OUT:                                     OUT:
          ----                                     ----
             STORAGE     =    25818228.0000               STORAGE     =           7.3456
       CONSTANT HEAD     =           0.0000         CONSTANT HEAD     =           0.0000
     HEAD DEP BOUNDS     =     3102142.0000       HEAD DEP BOUNDS     =           0.2933
      STREAM LEAKAGE     =   111847512.0000        STREAM LEAKAGE     =           6.3956
        UZF RECHARGE     =           0.0000          UZF RECHARGE     =           0.0000
               GW ET     =      238934.1719                 GW ET     =       5.5732E-02
     SURFACE LEAKAGE     =           0.0000       SURFACE LEAKAGE     =           0.0000
           AG WELLS      =     9783692.0000             AG WELLS      =           3.7200

               TOTAL OUT =   150790512.0000                 TOTAL OUT =          17.8102

                IN - OUT =       -2464.0000                  IN - OUT =       1.7166E-05

     PERCENT DISCREPANCY =          -0.00         PERCENT DISCREPANCY =           0.00






         TIME SUMMARY AT END OF TIME STEP   30 IN STRESS PERIOD    5
                    SECONDS     MINUTES      HOURS       DAYS        YEARS
                    -----------------------------------------------------------
   TIME STEP LENGTH  87667.      1461.1      24.352      1.0147     2.77799E-03
 STRESS PERIOD TIME 2.63000E+06  43833.      730.56      30.440     8.33397E-02
         TOTAL TIME 1.06064E+07 1.76773E+05  2946.2      122.76     0.33610    
1
1
                            STRESS PERIOD NO.    6, LENGTH =   2630000.    
                            -----------------------------------------------

                              NUMBER OF TIME STEPS =    30

                               MULTIPLIER FOR DELT =     1.000

                            INITIAL TIME STEP SIZE =   87666.66    

 REUSING NON-PARAMETER GHB CELLS FROM LAST STRESS PERIOD

      2 GHB CELLS

 REUSING STREAM SEGMENT DATA FROM LAST STRESS PERIOD



            AREAL INFILTRATION RATE
 READING ON UNIT   19 WITH FORMAT: (FREE)              

            1           2           3           4           5           6           7           8           9          10
 ........................................................................................................................
   1   1.0000E-10  2.0000E-10   0.000       0.000       0.000       0.000       0.000       0.000       0.000       0.000    
   2   2.0000E-10  1.0000E-10  2.0000E-10   0.000       0.000      8.0000E-10  8.0000E-10  5.0000E-10   0.000       0.000    
   3    0.000      5.0000E-10  1.0000E-10  1.0000E-10  8.0000E-10  8.0000E-10  5.0000E-10  5.0000E-10   0.000       0.000    
   4   8.0000E-10  5.0000E-10  1.0000E-10  1.0000E-10  1.0000E-10  1.0000E-10  1.0000E-10  1.0000E-10  2.0000E-10   0.000    
   5   8.0000E-10  5.0000E-10  1.0000E-10  1.0000E-10  1.0000E-10  1.0000E-10  1.0000E-10  1.0000E-10  1.0000E-10  1.0000E-10
   6   8.0000E-10  5.0000E-10  5.0000E-10  2.0000E-10  2.0000E-10  1.0000E-10  1.0000E-10  1.0000E-10  1.0000E-10  5.0000E-10
   7   8.0000E-10  5.0000E-10  5.0000E-10  2.0000E-10  2.0000E-10  1.0000E-10  1.0000E-10  2.0000E-10  2.0000E-10   0.000    
   8    0.000      5.0000E-10  5.0000E-10  2.0000E-10  2.0000E-10  1.0000E-10  1.0000E-10  2.0000E-10  5.0000E-10   0.000    
   9    0.000      5.0000E-10  5.0000E-10  2.0000E-10  2.0000E-10  1.0000E-10  1.0000E-10  2.0000E-10  5.0000E-10   0.000    
  10    0.000      5.0000E-10  5.0000E-10  2.0000E-10  2.0000E-10  1.0000E-10  1.0000E-10  2.0000E-10  5.0000E-10  8.0000E-10
  11    0.000      1.0000E-10  1.0000E-10  1.0000E-10  1.0000E-10  1.0000E-10  1.0000E-10  2.0000E-10  5.0000E-10   0.000    
  12   1.0000E-10  1.0000E-10  1.0000E-10  1.0000E-10  1.0000E-10  1.0000E-10  1.0000E-10  1.0000E-10  2.0000E-10   0.000    
  13   1.0000E-10  1.0000E-10  2.0000E-10  2.0000E-10  2.0000E-10  2.0000E-10  2.0000E-10  1.0000E-10  1.0000E-10   0.000    
  14    0.000      2.0000E-10  5.0000E-10  5.0000E-10  5.0000E-10  5.0000E-10  5.0000E-10  2.0000E-10  1.0000E-10   0.000    
  15    0.000       0.000      8.0000E-10  8.0000E-10  8.0000E-10  8.0000E-10   0.000       0.000       0.000       0.000    

                  ET RATE =  5.000000E-08

 USING ET EXTINCTION DEPTH FROM PREVIOUS STRESS PERIOD. CURRENT PERIOD IS:       6

 USING EXTINCTION WATER CONTENT FROM PREVIOUS STRESS PERIOD. CURRENT PERIOD IS:       6

 USING AIR ENTRY PRESSURE FROM PREVIOUS STRESS PERIOD. CURRENT PERIOD IS:       6

 USING ROOT PRESSURE HEAD FROM PREVIOUS STRESS PERIOD. CURRENT PERIOD IS:       6

 USING ROOT ACTIVITY FROM PREVIOUS STRESS PERIOD. CURRENT PERIOD IS:       6

 PROCESSING AG STRESS PERIOD DATA

 READING AG STRESS PERIOD DATA

 READING IRRIGATION WELL

 END PROCESSING AG STRESS PERIOD DATA OPTIONS
 
 SOLVING FOR HEAD 
                                                   Max.-Head-Change                         Max.-Flux-Residual
  Residual-Control   Outer-Iter.   Inner-Iter.     Column Row Layer    Maximum-Head-Change  Column Row Layer    Maximum-Flux-Residual          L2-NORM 
          0                 1           2             2   13     1       0.2250473846E-01       4   13    1         0.1302976863E+01      0.3454520070E+01
          0                 2           2             4   13     1      -0.2084634473E-02       4   13    1        -0.1289098661E+00      0.3404544608E+00
          0                 3           2             4   13     1       0.1398294172E-03       4   13    1         0.8890360246E-02      0.2339383158E-01
          0                 4           1             4    7     1       0.5489265105E-05       4   13    1        -0.3550644778E-03      0.9301179794E-03

    ------------------------------------------------
       NWT REQUIRED            4 OUTER ITERATIONS 
       AND A TOTAL OF          7 INNER ITERATIONS.
    ------------------------------------------------

 NO OUTPUT CONTROL FOR STRESS PERIOD    6   TIME STEP    1
 
 SOLVING FOR HEAD 
                                                   Max.-Head-Change                         Max.-Flux-Residual
  Residual-Control   Outer-Iter.   Inner-Iter.     Column Row Layer    Maximum-Head-Change  Column Row Layer    Maximum-Flux-Residual          L2-NORM 
          0                 1           2             4    7     1      -0.2069077373E-01       2   13    1         0.1173085713E+01      0.3272205487E+01
          0                 2           2             4    7     1       0.2012642584E-02       2   13    1        -0.1118958294E+00      0.3231967464E+00
          0                 3           2             4    7     1      -0.1370535522E-03       4   13    1         0.7681851401E-02      0.2225507019E-01
          0                 4           1             4    7     1       0.5453488742E-05       4    7    1         0.3101840834E-03      0.8874844690E-03

    ------------------------------------------------
       NWT REQUIRED            4 OUTER ITERATIONS 
       AND A TOTAL OF          7 INNER ITERATIONS.
    ------------------------------------------------

 NO OUTPUT CONTROL FOR STRESS PERIOD    6   TIME STEP    2
 
 SOLVING FOR HEAD 
                                                   Max.-Head-Change                         Max.-Flux-Residual
  Residual-Control   Outer-Iter.   Inner-Iter.     Column Row Layer    Maximum-Head-Change  Column Row Layer    Maximum-Flux-Residual          L2-NORM 
          0                 1           2             4    7     1      -0.2052603841E-01       2   13    1         0.1075563761E+01      0.3116828551E+01
          0                 2           2             4    7     1       0.1996618184E-02       4    7    1         0.1075081577E+00      0.3082992832E+00
          0                 3           2             4    7     1      -0.1359623517E-03       4    7    1        -0.7525577774E-02      0.2127040535E-01
          0                 4           1             4    7     1       0.5410068828E-05       4    7    1         0.3077965539E-03      0.8504852087E-03

    ------------------------------------------------
       NWT REQUIRED            4 OUTER ITERATIONS 
       AND A TOTAL OF          7 INNER ITERATIONS.
    ------------------------------------------------

 NO OUTPUT CONTROL FOR STRESS PERIOD    6   TIME STEP    3
 
 SOLVING FOR HEAD 
                                                   Max.-Head-Change                         Max.-Flux-Residual
  Residual-Control   Outer-Iter.   Inner-Iter.     Column Row Layer    Maximum-Head-Change  Column Row Layer    Maximum-Flux-Residual          L2-NORM 
          0                 1           2             4    7     1      -0.2035761052E-01       4    7    1        -0.1066528940E+01      0.2983924513E+01
          0                 2           2             4    7     1       0.1980234621E-02       4    7    1         0.1066525165E+00      0.2955515782E+00
          0                 3           2             4    7     1      -0.1348466925E-03       4    7    1        -0.7465682941E-02      0.2042825999E-01
          0                 4           1             4    7     1       0.5365675626E-05       4    7    1         0.3053468349E-03      0.8193843039E-03

    ------------------------------------------------
       NWT REQUIRED            4 OUTER ITERATIONS 
       AND A TOTAL OF          7 INNER ITERATIONS.
    ------------------------------------------------

 NO OUTPUT CONTROL FOR STRESS PERIOD    6   TIME STEP    4
 
 SOLVING FOR HEAD 
                                                   Max.-Head-Change                         Max.-Flux-Residual
  Residual-Control   Outer-Iter.   Inner-Iter.     Column Row Layer    Maximum-Head-Change  Column Row Layer    Maximum-Flux-Residual          L2-NORM 
          0                 1           2             4    7     1      -0.2018569231E-01       4    7    1        -0.1057766336E+01      0.2869728789E+01
          0                 2           2             4    7     1       0.1963511568E-02       4    7    1         0.1057762489E+00      0.2845915652E+00
          0                 3           2             4    7     1      -0.1337079157E-03       4    7    1        -0.7404344249E-02      0.1970311557E-01
          0                 4           1             4    7     1       0.5320362784E-05       4    7    1         0.3028380841E-03      0.7925049260E-03

    ------------------------------------------------
       NWT REQUIRED            4 OUTER ITERATIONS 
       AND A TOTAL OF          7 INNER ITERATIONS.
    ------------------------------------------------

 NO OUTPUT CONTROL FOR STRESS PERIOD    6   TIME STEP    5
 
 SOLVING FOR HEAD 
                                                   Max.-Head-Change                         Max.-Flux-Residual
  Residual-Control   Outer-Iter.   Inner-Iter.     Column Row Layer    Maximum-Head-Change  Column Row Layer    Maximum-Flux-Residual          L2-NORM 
          0                 1           2             4    7     1      -0.2001128112E-01       4    7    1        -0.1048852407E+01      0.2771086774E+01
          0                 2           2             4    7     1       0.1946546038E-02       4    7    1         0.1048848502E+00      0.2751135806E+00
          0                 3           2             4    7     1      -0.1325526270E-03       4    7    1        -0.7341946387E-02      0.1907531039E-01
          0                 4           1             4    7     1       0.5274392793E-05       4    7    1         0.3002860133E-03      0.7691365358E-03

    ------------------------------------------------
       NWT REQUIRED            4 OUTER ITERATIONS 
       AND A TOTAL OF          7 INNER ITERATIONS.
    ------------------------------------------------

 NO OUTPUT CONTROL FOR STRESS PERIOD    6   TIME STEP    6
 
 SOLVING FOR HEAD 
                                                   Max.-Head-Change                         Max.-Flux-Residual
  Residual-Control   Outer-Iter.   Inner-Iter.     Column Row Layer    Maximum-Head-Change  Column Row Layer    Maximum-Flux-Residual          L2-NORM 
          0                 1           2             4    7     1      -0.1983423786E-01       4    7    1        -0.1039779576E+01      0.2685347230E+01
          0                 2           2             4    7     1       0.1929324496E-02       4    7    1         0.1039775627E+00      0.2668647309E+00
          0                 3           2             4    7     1      -0.1313799046E-03       4    7    1        -0.7278436277E-02      0.1852756631E-01
          0                 4           1             4    7     1       0.5227729274E-05       4    7    1         0.2976884480E-03      0.7484206042E-03

    ------------------------------------------------
       NWT REQUIRED            4 OUTER ITERATIONS 
       AND A TOTAL OF          7 INNER ITERATIONS.
    ------------------------------------------------

 NO OUTPUT CONTROL FOR STRESS PERIOD    6   TIME STEP    7
 
 SOLVING FOR HEAD 
                                                   Max.-Head-Change                         Max.-Flux-Residual
  Residual-Control   Outer-Iter.   Inner-Iter.     Column Row Layer    Maximum-Head-Change  Column Row Layer    Maximum-Flux-Residual          L2-NORM 
          0                 1           2             4    7     1      -0.1965495255E-01       4    7    1        -0.1030570277E+01      0.2610301535E+01
          0                 2           2             4    7     1       0.1911884882E-02       4    7    1         0.1030566294E+00      0.2596319677E+00
          0                 3           2             4    7     1      -0.1301923318E-03       4    7    1        -0.7213970954E-02      0.1804624497E-01
          0                 4           1             4    7     1       0.5180474460E-05       4    7    1         0.2950518092E-03      0.7304677828E-03

    ------------------------------------------------
       NWT REQUIRED            4 OUTER ITERATIONS 
       AND A TOTAL OF          7 INNER ITERATIONS.
    ------------------------------------------------

 NO OUTPUT CONTROL FOR STRESS PERIOD    6   TIME STEP    8
 
 SOLVING FOR HEAD 
                                                   Max.-Head-Change                         Max.-Flux-Residual
  Residual-Control   Outer-Iter.   Inner-Iter.     Column Row Layer    Maximum-Head-Change  Column Row Layer    Maximum-Flux-Residual          L2-NORM 
          0                 1           2             4    7     1      -0.1947434234E-01       4    7    1        -0.1021274371E+01      0.2544154372E+01
          0                 2           2             4    7     1       0.1894316405E-02       4    7    1         0.1021270365E+00      0.2532436588E+00
          0                 3           2             4    7     1      -0.1289959840E-03       4    7    1        -0.7148899437E-02      0.1761994769E-01
          0                 4           1             4    7     1       0.5132870809E-05       4    7    1         0.2923903839E-03      0.7141434276E-03

    ------------------------------------------------
       NWT REQUIRED            4 OUTER ITERATIONS 
       AND A TOTAL OF          7 INNER ITERATIONS.
    ------------------------------------------------

 NO OUTPUT CONTROL FOR STRESS PERIOD    6   TIME STEP    9
 
 SOLVING FOR HEAD 
                                                   Max.-Head-Change                         Max.-Flux-Residual
  Residual-Control   Outer-Iter.   Inner-Iter.     Column Row Layer    Maximum-Head-Change  Column Row Layer    Maximum-Flux-Residual          L2-NORM 
          0                 1           2             4    7     1      -0.1929218663E-01       4    7    1        -0.1011880131E+01      0.2485409328E+01
          0                 2           2             4    7     1       0.1876597351E-02       4    7    1         0.1011876113E+00      0.2475557271E+00
          0                 3           2             4    7     1      -0.1277893820E-03       4    7    1        -0.7083139646E-02      0.1723880744E-01
          0                 4           1             4    7     1       0.5084858685E-05       4    7    1         0.2897007894E-03      0.6993249842E-03

    ------------------------------------------------
       NWT REQUIRED            4 OUTER ITERATIONS 
       AND A TOTAL OF          7 INNER ITERATIONS.
    ------------------------------------------------

 NO OUTPUT CONTROL FOR STRESS PERIOD    6   TIME STEP   10
 
 SOLVING FOR HEAD 
                                                   Max.-Head-Change                         Max.-Flux-Residual
  Residual-Control   Outer-Iter.   Inner-Iter.     Column Row Layer    Maximum-Head-Change  Column Row Layer    Maximum-Flux-Residual          L2-NORM 
          0                 1           2             4    7     1      -0.1910880686E-01       4    7    1        -0.1002405774E+01      0.2432825657E+01
          0                 2           2             4    7     1       0.1858759756E-02       4    7    1         0.1002401752E+00      0.2424582962E+00
          0                 3           2             4    7     1      -0.1265747077E-03       4    7    1        -0.7016819093E-02      0.1689699769E-01
          0                 4           1             4    7     1       0.5036525816E-05       4    7    1         0.2869882819E-03      0.6864917064E-03

    ------------------------------------------------
       NWT REQUIRED            4 OUTER ITERATIONS 
       AND A TOTAL OF          7 INNER ITERATIONS.
    ------------------------------------------------

 NO OUTPUT CONTROL FOR STRESS PERIOD    6   TIME STEP   11
 
 SOLVING FOR HEAD 
                                                   Max.-Head-Change                         Max.-Flux-Residual
  Residual-Control   Outer-Iter.   Inner-Iter.     Column Row Layer    Maximum-Head-Change  Column Row Layer    Maximum-Flux-Residual          L2-NORM 
          0                 1           2             4    7     1      -0.1892505054E-01       4    7    1        -0.9928975612E+00      0.2385433157E+01
          0                 2           2             4    7     1       0.1840885288E-02       4    7    1         0.9928935433E-01      0.2378499076E+00
          0                 3           2             4    7     1      -0.1253575227E-03       4    7    1        -0.6950261601E-02      0.1658597035E-01
          0                 4           1             4    7     1       0.4988092786E-05       4    7    1         0.2842660717E-03      0.6743959832E-03

    ------------------------------------------------
       NWT REQUIRED            4 OUTER ITERATIONS 
       AND A TOTAL OF          7 INNER ITERATIONS.
    ------------------------------------------------

 NO OUTPUT CONTROL FOR STRESS PERIOD    6   TIME STEP   12
 
 SOLVING FOR HEAD 
                                                   Max.-Head-Change                         Max.-Flux-Residual
  Residual-Control   Outer-Iter.   Inner-Iter.     Column Row Layer    Maximum-Head-Change  Column Row Layer    Maximum-Flux-Residual          L2-NORM 
          0                 1           2             4    7     1      -0.1874061417E-01       4    7    1        -0.9833402043E+00      0.2342379229E+01
          0                 2           2             4    7     1       0.1822944679E-02       4    7    1         0.9833361971E-01      0.2336543658E+00
          0                 3           2             4    7     1      -0.1241358335E-03       4    7    1        -0.6883360128E-02      0.1630244929E-01
          0                 4           1             4    7     1       0.4939480847E-05       4    7    1         0.2815298044E-03      0.6636173223E-03

    ------------------------------------------------
       NWT REQUIRED            4 OUTER ITERATIONS 
       AND A TOTAL OF          7 INNER ITERATIONS.
    ------------------------------------------------

 NO OUTPUT CONTROL FOR STRESS PERIOD    6   TIME STEP   13
 
 SOLVING FOR HEAD 
                                                   Max.-Head-Change                         Max.-Flux-Residual
  Residual-Control   Outer-Iter.   Inner-Iter.     Column Row Layer    Maximum-Head-Change  Column Row Layer    Maximum-Flux-Residual          L2-NORM 
          0                 1           2             4    7     1      -0.1855576872E-01       4    7    1        -0.9737475897E+00      0.2303007384E+01
          0                 2           2             4    7     1       0.1804964288E-02       4    7    1         0.9737436004E-01      0.2298081523E+00
          0                 3           2             4    7     1      -0.1229114353E-03       4    7    1        -0.6816211918E-02      0.1604158787E-01
          0                 4           1             4    7     1       0.4890760459E-05       4    7    1         0.2787834276E-03      0.6533423273E-03

    ------------------------------------------------
       NWT REQUIRED            4 OUTER ITERATIONS 
       AND A TOTAL OF          7 INNER ITERATIONS.
    ------------------------------------------------

 NO OUTPUT CONTROL FOR STRESS PERIOD    6   TIME STEP   14
 
 SOLVING FOR HEAD 
                                                   Max.-Head-Change                         Max.-Flux-Residual
  Residual-Control   Outer-Iter.   Inner-Iter.     Column Row Layer    Maximum-Head-Change  Column Row Layer    Maximum-Flux-Residual          L2-NORM 
          0                 1           2             4    7     1      -0.1837102125E-01       4    7    1        -0.9641485832E+00      0.2266760235E+01
          0                 2           2             4    7     1       0.1786993436E-02       4    7    1         0.9641446173E-01      0.2262592672E+00
          0                 3           2             4    7     1      -0.1216876863E-03       4    7    1        -0.6749018984E-02      0.1579981222E-01
          0                 4           1             4    7     1       0.4842066319E-05       4    7    1         0.2760352240E-03      0.6438378829E-03

    ------------------------------------------------
       NWT REQUIRED            4 OUTER ITERATIONS 
       AND A TOTAL OF          7 INNER ITERATIONS.
    ------------------------------------------------

 NO OUTPUT CONTROL FOR STRESS PERIOD    6   TIME STEP   15
 
 SOLVING FOR HEAD 
                                                   Max.-Head-Change                         Max.-Flux-Residual
  Residual-Control   Outer-Iter.   Inner-Iter.     Column Row Layer    Maximum-Head-Change  Column Row Layer    Maximum-Flux-Residual          L2-NORM 
          0                 1           2             4    7     1      -0.1818657023E-01       4    7    1        -0.9545546586E+00      0.2233183077E+01
          0                 2           2             4    7     1       0.1769051428E-02       4    7    1         0.9545507211E-01      0.2229656065E+00
          0                 3           2             4    7     1      -0.1204659022E-03       4    7    1        -0.6681861663E-02      0.1557518047E-01
          0                 4           1             4    7     1       0.4793450927E-05       4    7    1         0.2732885157E-03      0.6350419620E-03

    ------------------------------------------------
       NWT REQUIRED            4 OUTER ITERATIONS 
       AND A TOTAL OF          7 INNER ITERATIONS.
    ------------------------------------------------

 NO OUTPUT CONTROL FOR STRESS PERIOD    6   TIME STEP   16
 
 SOLVING FOR HEAD 
                                                   Max.-Head-Change                         Max.-Flux-Residual
  Residual-Control   Outer-Iter.   Inner-Iter.     Column Row Layer    Maximum-Head-Change  Column Row Layer    Maximum-Flux-Residual          L2-NORM 
          0                 1           2             4    7     1      -0.1800261333E-01       4    7    1        -0.9449761065E+00      0.2201916136E+01
          0                 2           2             4    7     1       0.1751157490E-02       4    7    1         0.9449722018E-01      0.2198915898E+00
          0                 3           1             4    7     1      -0.1192473932E-03       4    7    1        -0.6614811952E-02      0.1536473741E-01
          0                 4           1             4    7     1       0.4744967931E-05       4    7    1         0.2705461636E-03      0.6266829539E-03

    ------------------------------------------------
       NWT REQUIRED            4 OUTER ITERATIONS 
       AND A TOTAL OF          6 INNER ITERATIONS.
    ------------------------------------------------

 NO OUTPUT CONTROL FOR STRESS PERIOD    6   TIME STEP   17
 
 SOLVING FOR HEAD 
                                                   Max.-Head-Change                         Max.-Flux-Residual
  Residual-Control   Outer-Iter.   Inner-Iter.     Column Row Layer    Maximum-Head-Change  Column Row Layer    Maximum-Flux-Residual          L2-NORM 
          0                 1           2             4    7     1      -0.1781905646E-01       4    7    1        -0.9354083606E+00      0.2172646548E+01
          0                 2           2             4    7     1       0.1733302471E-02       4    7    1         0.9354044934E-01      0.2170094260E+00
          0                 3           1             4    7     1      -0.1180315323E-03       4    7    1        -0.6547837924E-02      0.1516710649E-01
          0                 4           1             4    7     1       0.4696587860E-05       4    7    1         0.2678069368E-03      0.6187065017E-03

    ------------------------------------------------
       NWT REQUIRED            4 OUTER ITERATIONS 
       AND A TOTAL OF          6 INNER ITERATIONS.
    ------------------------------------------------

 NO OUTPUT CONTROL FOR STRESS PERIOD    6   TIME STEP   18
 
 SOLVING FOR HEAD 
                                                   Max.-Head-Change                         Max.-Flux-Residual
  Residual-Control   Outer-Iter.   Inner-Iter.     Column Row Layer    Maximum-Head-Change  Column Row Layer    Maximum-Flux-Residual          L2-NORM 
          0                 1           2             4    7     1      -0.1763633562E-01       4    7    1        -0.9258761733E+00      0.2145105984E+01
          0                 2           2             4    7     1       0.1715528779E-02       4    7    1         0.9258723465E-01      0.2142926794E+00
          0                 3           1             4    7     1      -0.1168212093E-03       4    7    1        -0.6481112848E-02      0.1498048560E-01
          0                 4           1             4    7     1       0.4648427912E-05       4    7    1         0.2650778622E-03      0.6114856770E-03

    ------------------------------------------------
       NWT REQUIRED            4 OUTER ITERATIONS 
       AND A TOTAL OF          6 INNER ITERATIONS.
    ------------------------------------------------

 NO OUTPUT CONTROL FOR STRESS PERIOD    6   TIME STEP   19
 
 SOLVING FOR HEAD 
                                                   Max.-Head-Change                         Max.-Flux-Residual
  Residual-Control   Outer-Iter.   Inner-Iter.     Column Row Layer    Maximum-Head-Change  Column Row Layer    Maximum-Flux-Residual          L2-NORM 
          0                 1           2             4    7     1      -0.1745432496E-01       4    7    1        -0.9163725212E+00      0.2119084170E+01
          0                 2           2             4    7     1       0.1697824174E-02       4    7    1         0.9163687387E-01      0.2117218607E+00
          0                 3           1             4    7     1      -0.1156155907E-03       4    7    1        -0.6414587523E-02      0.1480349752E-01
          0                 4           1             4    7     1       0.4600455162E-05       4    7    1         0.2623569658E-03      0.6045537679E-03

    ------------------------------------------------
       NWT REQUIRED            4 OUTER ITERATIONS 
       AND A TOTAL OF          6 INNER ITERATIONS.
    ------------------------------------------------

 NO OUTPUT CONTROL FOR STRESS PERIOD    6   TIME STEP   20
 
 SOLVING FOR HEAD 
                                                   Max.-Head-Change                         Max.-Flux-Residual
  Residual-Control   Outer-Iter.   Inner-Iter.     Column Row Layer    Maximum-Head-Change  Column Row Layer    Maximum-Flux-Residual          L2-NORM 
          0                 1           2             4    7     1      -0.1727344339E-01       4    7    1        -0.9069205074E+00      0.2094411384E+01
          0                 2           2             4    7     1       0.1680229401E-02       4    7    1         0.9069167715E-01      0.2092810830E+00
          0                 3           1             4    7     1      -0.1144174512E-03       4    7    1        -0.6348423669E-02      0.1463500988E-01
          0                 4           1             4    7     1       0.4552780362E-05       4    7    1         0.2596508739E-03      0.5977582563E-03

    ------------------------------------------------
       NWT REQUIRED            4 OUTER ITERATIONS 
       AND A TOTAL OF          6 INNER ITERATIONS.
    ------------------------------------------------

 NO OUTPUT CONTROL FOR STRESS PERIOD    6   TIME STEP   21
 
 SOLVING FOR HEAD 
                                                   Max.-Head-Change                         Max.-Flux-Residual
  Residual-Control   Outer-Iter.   Inner-Iter.     Column Row Layer    Maximum-Head-Change  Column Row Layer    Maximum-Flux-Residual          L2-NORM 
          0                 1           2             4    7     1      -0.1709353983E-01       4    7    1        -0.8975122250E+00      0.2070933376E+01
          0                 2           2             4    7     1       0.1662729767E-02       4    7    1         0.8975085384E-01      0.2069557010E+00
          0                 3           1             4    7     1      -0.1132257906E-03       4    7    1        -0.6282565974E-02      0.1447416455E-01
          0                 4           1             4    7     1       0.4505363218E-05       4    7    1         0.2569572935E-03      0.5910114988E-03

    ------------------------------------------------
       NWT REQUIRED            4 OUTER ITERATIONS 
       AND A TOTAL OF          6 INNER ITERATIONS.
    ------------------------------------------------

 NO OUTPUT CONTROL FOR STRESS PERIOD    6   TIME STEP   22
 
 SOLVING FOR HEAD 
                                                   Max.-Head-Change                         Max.-Flux-Residual
  Residual-Control   Outer-Iter.   Inner-Iter.     Column Row Layer    Maximum-Head-Change  Column Row Layer    Maximum-Flux-Residual          L2-NORM 
          0                 1           2             4    7     1      -0.1691527570E-01       4    7    1        -0.8881842785E+00      0.2048533771E+01
          0                 2           2             4    7     1       0.1645389606E-02       4    7    1         0.8881806428E-01      0.2047348035E+00
          0                 3           1             4    7     1      -0.1120449889E-03       4    7    1        -0.6217270616E-02      0.1432048708E-01
          0                 4           1             4    7     1       0.4458378033E-05       4    7    1         0.2542867037E-03      0.5849714419E-03

    ------------------------------------------------
       NWT REQUIRED            4 OUTER ITERATIONS 
       AND A TOTAL OF          6 INNER ITERATIONS.
    ------------------------------------------------

 NO OUTPUT CONTROL FOR STRESS PERIOD    6   TIME STEP   23
 
 SOLVING FOR HEAD 
                                                   Max.-Head-Change                         Max.-Flux-Residual
  Residual-Control   Outer-Iter.   Inner-Iter.     Column Row Layer    Maximum-Head-Change  Column Row Layer    Maximum-Flux-Residual          L2-NORM 
          0                 1           2             4    7     1      -0.1673818924E-01       4    7    1        -0.8789117128E+00      0.2027088839E+01
          0                 2           2             4    7     1       0.1628164003E-02       4    7    1         0.8789081300E-01      0.2026061745E+00
          0                 3           1             4    7     1      -0.1108719886E-03       4    7    1        -0.6152362952E-02      0.1417307512E-01
          0                 4           1             4    7     1       0.4411703231E-05       4    7    1         0.2516319757E-03      0.5790923435E-03

    ------------------------------------------------
       NWT REQUIRED            4 OUTER ITERATIONS 
       AND A TOTAL OF          6 INNER ITERATIONS.
    ------------------------------------------------

 NO OUTPUT CONTROL FOR STRESS PERIOD    6   TIME STEP   24
 
 SOLVING FOR HEAD 
                                                   Max.-Head-Change                         Max.-Flux-Residual
  Residual-Control   Outer-Iter.   Inner-Iter.     Column Row Layer    Maximum-Head-Change  Column Row Layer    Maximum-Flux-Residual          L2-NORM 
          0                 1           2             4    7     1      -0.1656238706E-01       4    7    1        -0.8697002115E+00      0.2006522918E+01
          0                 2           2             4    7     1       0.1611063329E-02       4    7    1         0.8696966833E-01      0.2005632969E+00
          0                 3           1             4    7     1      -0.1097074952E-03       4    7    1        -0.6087882751E-02      0.1403120603E-01
          0                 4           1             4    7     1       0.4365366905E-05       4    7    1         0.2489947333E-03      0.5733292295E-03

    ------------------------------------------------
       NWT REQUIRED            4 OUTER ITERATIONS 
       AND A TOTAL OF          6 INNER ITERATIONS.
    ------------------------------------------------

 NO OUTPUT CONTROL FOR STRESS PERIOD    6   TIME STEP   25
 
 SOLVING FOR HEAD 
                                                   Max.-Head-Change                         Max.-Flux-Residual
  Residual-Control   Outer-Iter.   Inner-Iter.     Column Row Layer    Maximum-Head-Change  Column Row Layer    Maximum-Flux-Residual          L2-NORM 
          0                 1           2             4    7     1      -0.1638849313E-01       4    7    1        -0.8605849223E+00      0.1986738320E+01
          0                 2           2             4    7     1       0.1594148275E-02       4    7    1         0.8605814493E-01      0.1985964574E+00
          0                 3           1             4    7     1      -0.1085556422E-03       4    7    1        -0.6024076041E-02      0.1389477370E-01
          0                 4           1             4    7     1       0.4319533456E-05       4    7    1         0.2463850333E-03      0.5678808870E-03

    ------------------------------------------------
       NWT REQUIRED            4 OUTER ITERATIONS 
       AND A TOTAL OF          6 INNER ITERATIONS.
    ------------------------------------------------

 NO OUTPUT CONTROL FOR STRESS PERIOD    6   TIME STEP   26
 
 SOLVING FOR HEAD 
                                                   Max.-Head-Change                         Max.-Flux-Residual
  Residual-Control   Outer-Iter.   Inner-Iter.     Column Row Layer    Maximum-Head-Change  Column Row Layer    Maximum-Flux-Residual          L2-NORM 
          0                 1           2             4    7     1      -0.1621602059E-01       4    7    1        -0.8515389556E+00      0.1967672176E+01
          0                 2           2             4    7     1       0.1577371485E-02       4    7    1         0.8515355391E-01      0.1966998022E+00
          0                 3           1             4    7     1      -0.1074132040E-03       4    7    1        -0.5960754584E-02      0.1376280942E-01
          0                 4           1             4    7     1       0.4274075093E-05       4    7    1         0.2437951759E-03      0.5625255633E-03

    ------------------------------------------------
       NWT REQUIRED            4 OUTER ITERATIONS 
       AND A TOTAL OF          6 INNER ITERATIONS.
    ------------------------------------------------

 NO OUTPUT CONTROL FOR STRESS PERIOD    6   TIME STEP   27
 
 SOLVING FOR HEAD 
                                                   Max.-Head-Change                         Max.-Flux-Residual
  Residual-Control   Outer-Iter.   Inner-Iter.     Column Row Layer    Maximum-Head-Change  Column Row Layer    Maximum-Flux-Residual          L2-NORM 
          0                 1           2             4    7     1      -0.1604531960E-01       4    7    1        -0.8425814986E+00      0.1949284260E+01
          0                 2           2             4    7     1       0.1560767021E-02       4    7    1         0.8425781394E-01      0.1948694523E+00
          0                 3           1             4    7     1      -0.1062825005E-03       4    7    1        -0.5898052689E-02      0.1363545207E-01
          0                 4           1             4    7     1       0.4229083226E-05       4    7    1         0.2412306687E-03      0.5572751837E-03

    ------------------------------------------------
       NWT REQUIRED            4 OUTER ITERATIONS 
       AND A TOTAL OF          6 INNER ITERATIONS.
    ------------------------------------------------

 NO OUTPUT CONTROL FOR STRESS PERIOD    6   TIME STEP   28
 
 SOLVING FOR HEAD 
                                                   Max.-Head-Change                         Max.-Flux-Residual
  Residual-Control   Outer-Iter.   Inner-Iter.     Column Row Layer    Maximum-Head-Change  Column Row Layer    Maximum-Flux-Residual          L2-NORM 
          0                 1           2             4    7     1      -0.1587616728E-01       4    7    1        -0.8337010887E+00      0.1931494778E+01
          0                 2           2             4    7     1       0.1544313199E-02       4    7    1         0.8336977872E-01      0.1930978152E+00
          0                 3           1             4    7     1      -0.1051620558E-03       4    7    1        -0.5835890161E-02      0.1351206179E-01
          0                 4           1             4    7     1       0.4184499833E-05       4    7    1         0.2386882293E-03      0.5522294659E-03

    ------------------------------------------------
       NWT REQUIRED            4 OUTER ITERATIONS 
       AND A TOTAL OF          6 INNER ITERATIONS.
    ------------------------------------------------

 NO OUTPUT CONTROL FOR STRESS PERIOD    6   TIME STEP   29
 
 SOLVING FOR HEAD 
                                                   Max.-Head-Change                         Max.-Flux-Residual
  Residual-Control   Outer-Iter.   Inner-Iter.     Column Row Layer    Maximum-Head-Change  Column Row Layer    Maximum-Flux-Residual          L2-NORM 
          0                 1           2             4    7     1      -0.1570892151E-01       4    7    1        -0.8249157863E+00      0.1901051580E+01
          0                 2           2             4    7     1       0.1528044835E-02       4    7    1         0.8249125434E-01      0.1900935109E+00
          0                 3           1             4    7     1      -0.1040542396E-03       4    7    1        -0.5774393364E-02      0.1330556451E-01
          0                 4           1             4    7     1       0.4140418856E-05       4    7    1         0.2361729903E-03      0.5441350277E-03

    ------------------------------------------------
       NWT REQUIRED            4 OUTER ITERATIONS 
       AND A TOTAL OF          6 INNER ITERATIONS.
    ------------------------------------------------

 NO OUTPUT CONTROL FOR STRESS PERIOD    6   TIME STEP   30



 STREAM LISTING     PERIOD      6   STEP       30

 LAYER ROW COL. STREAM  RCH.  FLOW INTO     FLOW TO   FLOW OUT OF   OVRLND.     DIRECT     STREAM       STREAM     STREAM     STREAM   STREAMBED  STREAMBED
                SEG.NO.  NO.  STRM. RCH.    AQUIFER    STRM. RCH.    RUNOFF     PRECIP       ET          HEAD       DEPTH      WIDTH   CONDCTNC.   GRADIENT

   1    1    1     1     1    9.2355E+01  4.5966E-01   9.1895E+01  0.000E+00  0.000E+00  0.000E+00  1.09482E+03  1.771E+00  2.141E+01  9.635E-02  1.590E+00
   1    2    2     1     2    9.1895E+01  7.1318E-01   9.1182E+01  0.000E+00  0.000E+00  0.000E+00  1.08983E+03  1.769E+00  2.136E+01  1.496E-01  1.590E+00
   1    3    3     1     3    9.1182E+01  6.0950E-01   9.0573E+01  0.000E+00  0.000E+00  0.000E+00  1.08418E+03  1.766E+00  2.131E+01  1.279E-01  1.589E+00
   1    3    4     1     4    9.0573E+01  5.6231E-01   9.0010E+01  0.000E+00  0.000E+00  0.000E+00  1.07917E+03  1.764E+00  2.127E+01  1.180E-01  1.588E+00
   1    4    5     2     1    8.8010E+01  4.3413E-01   8.7576E+01  0.000E+00  0.000E+00  0.000E+00  1.07450E+03  2.566E+00  1.200E+01  7.800E-02  1.855E+00
   1    5    6     2     2    8.7576E+01  3.3354E-01   8.7243E+01  0.000E+00  0.000E+00  0.000E+00  1.06907E+03  2.559E+00  1.200E+01  6.000E-02  1.853E+00
   1    6    6     2     3    8.7243E+01  3.3319E-01   8.6909E+01  0.000E+00  0.000E+00  0.000E+00  1.06435E+03  2.553E+00  1.200E+01  6.000E-02  1.851E+00
   1    7    6     2     4    8.6909E+01  3.3284E-01   8.6576E+01  0.000E+00  0.000E+00  0.000E+00  1.05962E+03  2.547E+00  1.200E+01  6.000E-02  1.849E+00
   1    8    6     2     5    8.6576E+01  3.3249E-01   8.6244E+01  0.000E+00  0.000E+00  0.000E+00  1.05490E+03  2.541E+00  1.200E+01  6.000E-02  1.847E+00
   1    3    5     3     1    2.0000E+00  2.8252E-01   1.7175E+00  0.000E+00  0.000E+00  0.000E+00  1.07555E+03  1.909E+00  9.636E+00  7.227E-02  1.955E+00
   1    3    6     3     2    1.7175E+00  2.4905E-01   1.4684E+00  0.000E+00  0.000E+00  0.000E+00  1.07264E+03  1.727E+00  8.909E+00  6.682E-02  1.864E+00
   1    3    7     3     3    1.4684E+00  1.9718E-01   1.2712E+00  0.000E+00  0.000E+00  0.000E+00  1.06987E+03  1.555E+00  8.218E+00  5.547E-02  1.777E+00
   1    4    8     3     4    1.2712E+00  2.2567E-01   1.0456E+00  0.000E+00  0.000E+00  0.000E+00  1.06682E+03  1.364E+00  7.455E+00  6.709E-02  1.682E+00
   1    5    8     3     5    1.0456E+00  1.5790E-01   8.8768E-01  0.000E+00  0.000E+00  0.000E+00  1.06362E+03  1.164E+00  6.655E+00  4.991E-02  1.582E+00
   1    6    8     3     6    8.8768E-01  5.5980E-02   8.3170E-01  0.000E+00  0.000E+00  0.000E+00  1.06158E+03  1.036E+00  6.145E+00  1.844E-02  1.518E+00
   1    5   10     4     1    1.0000E+01  9.0919E-02   9.9091E+00  0.000E+00  0.000E+00  0.000E+00  1.07836E+03  6.368E-01  1.000E+01  2.500E-02  1.212E+00
   1    5    9     4     2    9.9091E+00  1.8158E-01   9.7275E+00  0.000E+00  0.000E+00  0.000E+00  1.07154E+03  6.315E-01  1.000E+01  5.000E-02  1.211E+00
   1    6    8     4     3    9.7275E+00  1.2689E-01   9.6006E+00  0.000E+00  0.000E+00  0.000E+00  1.06381E+03  6.256E-01  1.000E+01  3.500E-02  1.209E+00
   1    6    8     5     1    1.0432E+01  2.2686E-01   1.0205E+01  0.000E+00  0.000E+00  0.000E+00  1.05868E+03  6.790E-01  1.542E+01  6.166E-02  1.226E+00
   1    7    7     5     2    1.0205E+01  2.7894E-01   9.9265E+00  0.000E+00  0.000E+00  0.000E+00  1.05417E+03  6.732E-01  1.519E+01  7.594E-02  1.224E+00
   1    8    7     5     3    9.9265E+00  1.9221E-01   9.7343E+00  0.000E+00  0.000E+00  0.000E+00  1.04992E+03  6.676E-01  1.497E+01  5.241E-02  1.223E+00
   1    8    6     5     4    9.7343E+00  1.3577E-01   9.5985E+00  0.000E+00  0.000E+00  0.000E+00  1.04691E+03  6.637E-01  1.482E+01  3.706E-02  1.221E+00
   1    9    6     6     1    9.5843E+01  3.4390E-01   9.5499E+01  0.000E+00  0.000E+00  0.000E+00  1.04546E+03  2.732E+00  1.200E+01  6.000E-02  1.911E+00
   1   10    7     6     2    9.5499E+01  3.4355E-01   9.5155E+01  0.000E+00  0.000E+00  0.000E+00  1.04091E+03  2.726E+00  1.200E+01  6.000E-02  1.909E+00
   1   11    7     6     3    9.5155E+01  3.4320E-01   9.4812E+01  0.000E+00  0.000E+00  0.000E+00  1.03636E+03  2.720E+00  1.200E+01  6.000E-02  1.907E+00
   1   12    7     6     4    9.4812E+01  3.4284E-01   9.4469E+01  0.000E+00  0.000E+00  0.000E+00  1.03180E+03  2.714E+00  1.200E+01  6.000E-02  1.905E+00
   1   13    7     6     5    9.4469E+01  3.3805E-02   9.4435E+01  0.000E+00  0.000E+00  0.000E+00  1.02862E+03  2.711E+00  1.200E+01  2.400E-02  4.695E-01
   1   14    9     7     1    1.5000E+02  1.3319E+00   1.4867E+02  0.000E+00  0.000E+00  0.000E+00  1.03987E+03  2.288E+00  5.529E+01  5.593E-01  7.938E-01
   1   13    8     7     2    1.4867E+02  1.8070E+00   1.4686E+02  0.000E+00  0.000E+00  0.000E+00  1.03478E+03  2.279E+00  5.526E+01  6.148E-01  9.797E-01
   1   13    7     7     3    1.4686E+02  1.3844E+00   1.4548E+02  0.000E+00  0.000E+00  0.000E+00  1.02969E+03  2.271E+00  5.522E+01  5.585E-01  8.263E-01
   1   13    6     8     1    2.3991E+02  1.1021E+00   2.3881E+02  0.000E+00  0.000E+00  0.000E+00  1.02523E+03  3.356E+00  4.867E+01  4.959E-01  7.407E-01
   1   13    5     8     2    2.3881E+02  2.5269E-01   2.3856E+02  0.000E+00  0.000E+00  0.000E+00  1.01898E+03  3.353E+00  4.862E+01  4.954E-01  1.700E-01
   1   13    4     8     3    2.3856E+02 -2.1548E+00   2.4071E+02  0.000E+00  0.000E+00  0.000E+00  1.01273E+03  3.358E+00  4.869E+01  4.962E+00 -1.448E-01
   1   13    3     8     4    2.4071E+02 -3.3590E+00   2.4407E+02  0.000E+00  0.000E+00  0.000E+00  1.00650E+03  3.372E+00  4.890E+01  4.983E+00 -2.247E-01
   1   13    2     8     5    2.4407E+02 -2.5225E+00   2.4659E+02  0.000E+00  0.000E+00  0.000E+00  1.00026E+03  3.388E+00  4.912E+01  5.005E+00 -1.680E-01
   1   13    1     8     6    2.4659E+02 -1.8906E+00   2.4848E+02  0.000E+00  0.000E+00  0.000E+00  9.95274E+02  3.399E+00  4.928E+01  3.013E+00 -2.091E-01





UNSATURATED ZONE PACKAGE VOLUMETRIC BUDGET FOR  TIME STEP    30 STRESS PERIOD    6
  ------------------------------------------------------------------------------



     CUMULATIVE VOLUMES      L**3       RATES FOR THIS TIME STEP      L**3/T
     ------------------                 ------------------------

           IN:                                      IN:
           ---                                      ---
        INFILTRATION =    40647706.5976          INFILTRATION =           8.3175

          OUT:                                     OUT:
          ----                                     ----
              UZF ET =    40573737.9966                UZF ET =           8.3175
        UZF RECHARGE =       73224.0000          UZF RECHARGE =       0.0000E+00

            IN - OUT =         744.6010              IN - OUT =       0.0000E+00

          STORAGE:                                 STORAGE:
          --------                                 --------
      STORAGE CHANGE =         744.6690        STORAGE CHANGE =       8.4376E-15

 PERCENT DISCREPANCY IS DIFFERENCE BETWEEN IN-OUT MINUS CHANGE IN STORAGE
 DIVIDED BY THE AVERAGE OF IN AND OUT TIMES 100

 PERCENT DISCREPANCY =           0.00     PERCENT DISCREPANCY =           0.00






1
  VOLUMETRIC BUDGET FOR AGRICULTURAL FIELDS AT  END OF TIME STEP   30, STRESS PERIOD   6
  ------------------------------------------------------------------------------

     CUMULATIVE VOLUMES      L**3       RATES FOR THIS TIME STEP      L**3/T
     ------------------                 ------------------------

           IN:                                      IN:
           ---                                      ---
               AG WELLS  =    29429858.0000                 AG WELLS  =           7.4700
      DIVERSION SEGMENTS =           0.0000        DIVERSION SEGMENTS =           0.0000
           GW IRRIGATION =           0.0000             GW IRRIGATION =           0.0000
           SW IRRIGATION =           0.0000             SW IRRIGATION =           0.0000
        SYSTEM LOSSES GW =           0.0000          SYSTEM LOSSES GW =           0.0000
        SYSTEM LOSSES SW =           0.0000          SYSTEM LOSSES SW =           0.0000

                TOTAL IN =    29429858.0000                  TOTAL IN =           7.4700

          OUT:                                     OUT:
          ----                                     ----
               AG WELLS  =           0.0000                 AG WELLS  =           0.0000
      DIVERSION SEGMENTS =           0.0000        DIVERSION SEGMENTS =           0.0000
           GW IRRIGATION =    29429858.0000             GW IRRIGATION =           7.4700
           SW IRRIGATION =           0.0000             SW IRRIGATION =           0.0000
        SYSTEM LOSSES GW =           0.0000          SYSTEM LOSSES GW =           0.0000
        SYSTEM LOSSES SW =           0.0000          SYSTEM LOSSES SW =           0.0000

               TOTAL OUT =    29429858.0000                 TOTAL OUT =           7.4700

                IN - OUT =           0.0000                  IN - OUT =           0.0000

     PERCENT DISCREPANCY =           0.00         PERCENT DISCREPANCY =           0.00



1
  VOLUMETRIC BUDGET FOR ENTIRE MODEL AT END OF TIME STEP   30, STRESS PERIOD   6
  ------------------------------------------------------------------------------

     CUMULATIVE VOLUMES      L**3       RATES FOR THIS TIME STEP      L**3/T
     ------------------                 ------------------------

           IN:                                      IN:
           ---                                      ---
             STORAGE     =    36217668.0000               STORAGE     =           7.0072
       CONSTANT HEAD     =           0.0000         CONSTANT HEAD     =           0.0000
     HEAD DEP BOUNDS     =     3778269.5000       HEAD DEP BOUNDS     =           0.2855
      STREAM LEAKAGE     =   166669760.0000        STREAM LEAKAGE     =          13.7976
        UZF RECHARGE     =       73223.9531          UZF RECHARGE     =           0.0000
               GW ET     =           0.0000                 GW ET     =           0.0000
     SURFACE LEAKAGE     =           0.0000       SURFACE LEAKAGE     =           0.0000
           AG WELLS      =           0.0000             AG WELLS      =           0.0000

                TOTAL IN =   206738912.0000                  TOTAL IN =          21.0902

          OUT:                                     OUT:
          ----                                     ----
             STORAGE     =    36777200.0000               STORAGE     =           2.5503
       CONSTANT HEAD     =           0.0000         CONSTANT HEAD     =           0.0000
     HEAD DEP BOUNDS     =     3885196.5000       HEAD DEP BOUNDS     =           0.3003
      STREAM LEAKAGE     =   134603904.0000        STREAM LEAKAGE     =           9.9268
        UZF RECHARGE     =           0.0000          UZF RECHARGE     =           0.0000
               GW ET     =     2045195.1250                 GW ET     =           0.8429
     SURFACE LEAKAGE     =           0.0000       SURFACE LEAKAGE     =           0.0000
           AG WELLS      =    29429858.0000             AG WELLS      =           7.4700

               TOTAL OUT =   206741360.0000                 TOTAL OUT =          21.0903

                IN - OUT =       -2448.0000                  IN - OUT =      -1.3351E-05

     PERCENT DISCREPANCY =          -0.00         PERCENT DISCREPANCY =          -0.00






         TIME SUMMARY AT END OF TIME STEP   30 IN STRESS PERIOD    6
                    SECONDS     MINUTES      HOURS       DAYS        YEARS
                    -----------------------------------------------------------
   TIME STEP LENGTH  87667.      1461.1      24.352      1.0147     2.77799E-03
 STRESS PERIOD TIME 2.63000E+06  43833.      730.56      30.440     8.33397E-02
         TOTAL TIME 1.32364E+07 2.20607E+05  3676.8      153.20     0.41944    
1
1
                            STRESS PERIOD NO.    7, LENGTH =   2630000.    
                            -----------------------------------------------

                              NUMBER OF TIME STEPS =    30

                               MULTIPLIER FOR DELT =     1.000

                            INITIAL TIME STEP SIZE =   87666.66    

 REUSING NON-PARAMETER GHB CELLS FROM LAST STRESS PERIOD

      2 GHB CELLS

 REUSING STREAM SEGMENT DATA FROM LAST STRESS PERIOD



            AREAL INFILTRATION RATE
 READING ON UNIT   19 WITH FORMAT: (FREE)              

            1           2           3           4           5           6           7           8           9          10
 ........................................................................................................................
   1   1.0000E-10  2.0000E-10   0.000       0.000       0.000       0.000       0.000       0.000       0.000       0.000    
   2   2.0000E-10  1.0000E-10  2.0000E-10   0.000       0.000      8.0000E-10  8.0000E-10  5.0000E-10   0.000       0.000    
   3    0.000      5.0000E-10  1.0000E-10  1.0000E-10  8.0000E-10  8.0000E-10  5.0000E-10  5.0000E-10   0.000       0.000    
   4   8.0000E-10  5.0000E-10  1.0000E-10  1.0000E-10  1.0000E-10  1.0000E-10  1.0000E-10  1.0000E-10  2.0000E-10   0.000    
   5   8.0000E-10  5.0000E-10  1.0000E-10  1.0000E-10  1.0000E-10  1.0000E-10  1.0000E-10  1.0000E-10  1.0000E-10  1.0000E-10
   6   8.0000E-10  5.0000E-10  5.0000E-10  2.0000E-10  2.0000E-10  1.0000E-10  1.0000E-10  1.0000E-10  1.0000E-10  5.0000E-10
   7   8.0000E-10  5.0000E-10  5.0000E-10  2.0000E-10  2.0000E-10  1.0000E-10  1.0000E-10  2.0000E-10  2.0000E-10   0.000    
   8    0.000      5.0000E-10  5.0000E-10  2.0000E-10  2.0000E-10  1.0000E-10  1.0000E-10  2.0000E-10  5.0000E-10   0.000    
   9    0.000      5.0000E-10  5.0000E-10  2.0000E-10  2.0000E-10  1.0000E-10  1.0000E-10  2.0000E-10  5.0000E-10   0.000    
  10    0.000      5.0000E-10  5.0000E-10  2.0000E-10  2.0000E-10  1.0000E-10  1.0000E-10  2.0000E-10  5.0000E-10  8.0000E-10
  11    0.000      1.0000E-10  1.0000E-10  1.0000E-10  1.0000E-10  1.0000E-10  1.0000E-10  2.0000E-10  5.0000E-10   0.000    
  12   1.0000E-10  1.0000E-10  1.0000E-10  1.0000E-10  1.0000E-10  1.0000E-10  1.0000E-10  1.0000E-10  2.0000E-10   0.000    
  13   1.0000E-10  1.0000E-10  2.0000E-10  2.0000E-10  2.0000E-10  2.0000E-10  2.0000E-10  1.0000E-10  1.0000E-10   0.000    
  14    0.000      2.0000E-10  5.0000E-10  5.0000E-10  5.0000E-10  5.0000E-10  5.0000E-10  2.0000E-10  1.0000E-10   0.000    
  15    0.000       0.000      8.0000E-10  8.0000E-10  8.0000E-10  8.0000E-10   0.000       0.000       0.000       0.000    

                  ET RATE =  1.500000E-07

 USING ET EXTINCTION DEPTH FROM PREVIOUS STRESS PERIOD. CURRENT PERIOD IS:       7

 USING EXTINCTION WATER CONTENT FROM PREVIOUS STRESS PERIOD. CURRENT PERIOD IS:       7

 USING AIR ENTRY PRESSURE FROM PREVIOUS STRESS PERIOD. CURRENT PERIOD IS:       7

 USING ROOT PRESSURE HEAD FROM PREVIOUS STRESS PERIOD. CURRENT PERIOD IS:       7

 USING ROOT ACTIVITY FROM PREVIOUS STRESS PERIOD. CURRENT PERIOD IS:       7

 PROCESSING AG STRESS PERIOD DATA

 READING AG STRESS PERIOD DATA

 READING IRRIGATION WELL

 END PROCESSING AG STRESS PERIOD DATA OPTIONS
 
 SOLVING FOR HEAD 
                                                   Max.-Head-Change                         Max.-Flux-Residual
  Residual-Control   Outer-Iter.   Inner-Iter.     Column Row Layer    Maximum-Head-Change  Column Row Layer    Maximum-Flux-Residual          L2-NORM 
          0                 1           2             4    7     1      -0.6342410646E-01       4    7    1        -0.3316229458E+01      0.7964822768E+01
          0                 2           2             4    7     1       0.6161659047E-02       4    7    1         0.3312050797E+00      0.7948953436E+00
          0                 3           2             4    7     1      -0.4195865246E-03       4    7    1        -0.2318438959E-01      0.5558991943E-01
          0                 4           1             4    7     1       0.1669573829E-04       4    7    1         0.9482427324E-03      0.2270497657E-02

    ------------------------------------------------
       NWT REQUIRED            4 OUTER ITERATIONS 
       AND A TOTAL OF          7 INNER ITERATIONS.
    ------------------------------------------------

 NO OUTPUT CONTROL FOR STRESS PERIOD    7   TIME STEP    1
 
 SOLVING FOR HEAD 
                                                   Max.-Head-Change                         Max.-Flux-Residual
  Residual-Control   Outer-Iter.   Inner-Iter.     Column Row Layer    Maximum-Head-Change  Column Row Layer    Maximum-Flux-Residual          L2-NORM 
          0                 1           2             4    7     1      -0.6300567302E-01       4    7    1        -0.3295497768E+01      0.7788868363E+01
          0                 2           2             4    7     1       0.6128687504E-02       4    7    1         0.3295468303E+00      0.7784747871E+00
          0                 3           2             4    7     1      -0.4173413087E-03       4    7    1        -0.2306831370E-01      0.5445686279E-01
          0                 4           1             4    7     1       0.1660639927E-04       4    7    1         0.9434952190E-03      0.2225098562E-02

    ------------------------------------------------
       NWT REQUIRED            4 OUTER ITERATIONS 
       AND A TOTAL OF          7 INNER ITERATIONS.
    ------------------------------------------------

 NO OUTPUT CONTROL FOR STRESS PERIOD    7   TIME STEP    2
 
 SOLVING FOR HEAD 
                                                   Max.-Head-Change                         Max.-Flux-Residual
  Residual-Control   Outer-Iter.   Inner-Iter.     Column Row Layer    Maximum-Head-Change  Column Row Layer    Maximum-Flux-Residual          L2-NORM 
          0                 1           2             4    7     1      -0.6256949477E-01       4    7    1        -0.3273745156E+01      0.7636787100E+01
          0                 2           2             4    7     1       0.6086257163E-02       4    7    1         0.3273714224E+00      0.7633889630E+00
          0                 3           2             4    7     1      -0.4144519805E-03       4    7    1        -0.2291603648E-01      0.5341225534E-01
          0                 4           1             4    7     1       0.1649143032E-04       4    7    1         0.9372670793E-03      0.2183091903E-02

    ------------------------------------------------
       NWT REQUIRED            4 OUTER ITERATIONS 
       AND A TOTAL OF          7 INNER ITERATIONS.
    ------------------------------------------------

 NO OUTPUT CONTROL FOR STRESS PERIOD    7   TIME STEP    3
 
 SOLVING FOR HEAD 
                                                   Max.-Head-Change                         Max.-Flux-Residual
  Residual-Control   Outer-Iter.   Inner-Iter.     Column Row Layer    Maximum-Head-Change  Column Row Layer    Maximum-Flux-Residual          L2-NORM 
          0                 1           2             4    7     1      -0.6211762243E-01       4    7    1        -0.3251084403E+01      0.7502102817E+01
          0                 2           2             4    7     1       0.6042300491E-02       4    7    1         0.3251052191E+00      0.7500075090E+00
          0                 3           2             4    7     1      -0.4114587119E-03       4    7    1        -0.2275740340E-01      0.5248338581E-01
          0                 4           1             4    7     1       0.1637232529E-04       4    7    1         0.9307789649E-03      0.2145523754E-02

    ------------------------------------------------
       NWT REQUIRED            4 OUTER ITERATIONS 
       AND A TOTAL OF          7 INNER ITERATIONS.
    ------------------------------------------------

 NO OUTPUT CONTROL FOR STRESS PERIOD    7   TIME STEP    4
 
 SOLVING FOR HEAD 
                                                   Max.-Head-Change                         Max.-Flux-Residual
  Residual-Control   Outer-Iter.   Inner-Iter.     Column Row Layer    Maximum-Head-Change  Column Row Layer    Maximum-Flux-Residual          L2-NORM 
          0                 1           2             4    7     1      -0.6165149172E-01       4    7    1        -0.3227595125E+01      0.7380347028E+01
          0                 2           2             4    7     1       0.5996957123E-02       4    7    1         0.3227561807E+00      0.7378914661E+00
          0                 3           2             4    7     1      -0.4083710118E-03       4    7    1        -0.2259297168E-01      0.5164038894E-01
          0                 4           1             4    7     1       0.1624946296E-04       4    7    1         0.9240537008E-03      0.2111430897E-02

    ------------------------------------------------
       NWT REQUIRED            4 OUTER ITERATIONS 
       AND A TOTAL OF          7 INNER ITERATIONS.
    ------------------------------------------------

 OUTPUT CONTROL FOR STRESS PERIOD    7   TIME STEP    5
    PRINT BUDGET
    SAVE BUDGET
 UBDSV1 SAVING "         STORAGE" ON UNIT 102 AT TIME STEP  5, STRESS PERIOD   7
 UBDSV2 SAVING "   CONSTANT HEAD" ON UNIT 102 AT TIME STEP  5, STRESS PERIOD   7
 UBDSV1 SAVING "FLOW RIGHT FACE " ON UNIT 102 AT TIME STEP  5, STRESS PERIOD   7
 UBDSV1 SAVING "FLOW FRONT FACE " ON UNIT 102 AT TIME STEP  5, STRESS PERIOD   7

  HEAD DEP BOUNDS   PERIOD    7   STEP     5
 BOUNDARY      1   LAYER   1   ROW    13   COL     1   RATE   -0.300147    
 BOUNDARY      2   LAYER   1   ROW    14   COL     9   RATE    0.285491    



 STREAM LISTING     PERIOD      7   STEP        5

 LAYER ROW COL. STREAM  RCH.  FLOW INTO     FLOW TO   FLOW OUT OF   OVRLND.     DIRECT     STREAM       STREAM     STREAM     STREAM   STREAMBED  STREAMBED
                SEG.NO.  NO.  STRM. RCH.    AQUIFER    STRM. RCH.    RUNOFF     PRECIP       ET          HEAD       DEPTH      WIDTH   CONDCTNC.   GRADIENT

   1    1    1     1     1    8.3000E+01  4.4019E-01   8.2560E+01  0.000E+00  0.000E+00  0.000E+00  1.09478E+03  1.734E+00  2.066E+01  9.299E-02  1.578E+00
   1    2    2     1     2    8.2560E+01  6.8286E-01   8.1877E+01  0.000E+00  0.000E+00  0.000E+00  1.08979E+03  1.731E+00  2.062E+01  1.443E-01  1.577E+00
   1    3    3     1     3    8.1877E+01  5.8349E-01   8.1294E+01  0.000E+00  0.000E+00  0.000E+00  1.08415E+03  1.729E+00  2.057E+01  1.234E-01  1.576E+00
   1    3    4     1     4    8.1294E+01  5.3822E-01   8.0756E+01  0.000E+00  0.000E+00  0.000E+00  1.07913E+03  1.726E+00  2.052E+01  1.139E-01  1.575E+00
   1    4    5     2     1    7.8756E+01  4.2120E-01   7.8334E+01  0.000E+00  0.000E+00  0.000E+00  1.07433E+03  2.400E+00  1.200E+01  7.800E-02  1.800E+00
   1    5    6     2     2    7.8334E+01  3.2359E-01   7.8011E+01  0.000E+00  0.000E+00  0.000E+00  1.06890E+03  2.393E+00  1.200E+01  6.000E-02  1.798E+00
   1    6    6     2     3    7.8011E+01  3.2323E-01   7.7688E+01  0.000E+00  0.000E+00  0.000E+00  1.06418E+03  2.387E+00  1.200E+01  6.000E-02  1.796E+00
   1    7    6     2     4    7.7688E+01  3.2288E-01   7.7365E+01  0.000E+00  0.000E+00  0.000E+00  1.05946E+03  2.381E+00  1.200E+01  6.000E-02  1.794E+00
   1    8    6     2     5    7.7365E+01  3.2252E-01   7.7042E+01  0.000E+00  0.000E+00  0.000E+00  1.05473E+03  2.375E+00  1.200E+01  6.000E-02  1.792E+00
   1    3    5     3     1    2.0000E+00  2.8252E-01   1.7175E+00  0.000E+00  0.000E+00  0.000E+00  1.07555E+03  1.909E+00  9.636E+00  7.227E-02  1.955E+00
   1    3    6     3     2    1.7175E+00  2.4905E-01   1.4684E+00  0.000E+00  0.000E+00  0.000E+00  1.07264E+03  1.727E+00  8.909E+00  6.682E-02  1.864E+00
   1    3    7     3     3    1.4684E+00  1.9718E-01   1.2712E+00  0.000E+00  0.000E+00  0.000E+00  1.06987E+03  1.555E+00  8.218E+00  5.547E-02  1.777E+00
   1    4    8     3     4    1.2712E+00  2.2567E-01   1.0456E+00  0.000E+00  0.000E+00  0.000E+00  1.06682E+03  1.364E+00  7.455E+00  6.709E-02  1.682E+00
   1    5    8     3     5    1.0456E+00  1.5790E-01   8.8768E-01  0.000E+00  0.000E+00  0.000E+00  1.06362E+03  1.164E+00  6.655E+00  4.991E-02  1.582E+00
   1    6    8     3     6    8.8768E-01  5.5980E-02   8.3170E-01  0.000E+00  0.000E+00  0.000E+00  1.06158E+03  1.036E+00  6.145E+00  1.844E-02  1.518E+00
   1    5   10     4     1    1.0000E+01  9.0919E-02   9.9091E+00  0.000E+00  0.000E+00  0.000E+00  1.07836E+03  6.368E-01  1.000E+01  2.500E-02  1.212E+00
   1    5    9     4     2    9.9091E+00  1.8158E-01   9.7275E+00  0.000E+00  0.000E+00  0.000E+00  1.07154E+03  6.315E-01  1.000E+01  5.000E-02  1.211E+00
   1    6    8     4     3    9.7275E+00  1.2689E-01   9.6006E+00  0.000E+00  0.000E+00  0.000E+00  1.06381E+03  6.256E-01  1.000E+01  3.500E-02  1.209E+00
   1    6    8     5     1    1.0432E+01  2.2686E-01   1.0205E+01  0.000E+00  0.000E+00  0.000E+00  1.05868E+03  6.790E-01  1.542E+01  6.166E-02  1.226E+00
   1    7    7     5     2    1.0205E+01  2.7894E-01   9.9265E+00  0.000E+00  0.000E+00  0.000E+00  1.05417E+03  6.732E-01  1.519E+01  7.594E-02  1.224E+00
   1    8    7     5     3    9.9265E+00  1.9221E-01   9.7343E+00  0.000E+00  0.000E+00  0.000E+00  1.04992E+03  6.676E-01  1.497E+01  5.241E-02  1.223E+00
   1    8    6     5     4    9.7343E+00  1.3577E-01   9.5985E+00  0.000E+00  0.000E+00  0.000E+00  1.04691E+03  6.637E-01  1.482E+01  3.706E-02  1.221E+00
   1    9    6     6     1    8.6641E+01  3.3426E-01   8.6306E+01  0.000E+00  0.000E+00  0.000E+00  1.04530E+03  2.571E+00  1.200E+01  6.000E-02  1.857E+00
   1   10    7     6     2    8.6306E+01  3.3390E-01   8.5973E+01  0.000E+00  0.000E+00  0.000E+00  1.04075E+03  2.565E+00  1.200E+01  6.000E-02  1.855E+00
   1   11    7     6     3    8.5973E+01  3.3354E-01   8.5639E+01  0.000E+00  0.000E+00  0.000E+00  1.03620E+03  2.559E+00  1.200E+01  6.000E-02  1.853E+00
   1   12    7     6     4    8.5639E+01  3.3319E-01   8.5306E+01  0.000E+00  0.000E+00  0.000E+00  1.03164E+03  2.553E+00  1.200E+01  6.000E-02  1.851E+00
   1   13    7     6     5    8.5306E+01  2.9844E-02   8.5276E+01  0.000E+00  0.000E+00  0.000E+00  1.02846E+03  2.550E+00  1.200E+01  2.400E-02  4.145E-01
   1   14    9     7     1    1.5000E+02  1.3319E+00   1.4867E+02  0.000E+00  0.000E+00  0.000E+00  1.03987E+03  2.288E+00  5.529E+01  5.593E-01  7.938E-01
   1   13    8     7     2    1.4867E+02  1.8062E+00   1.4686E+02  0.000E+00  0.000E+00  0.000E+00  1.03478E+03  2.279E+00  5.526E+01  6.148E-01  9.793E-01
   1   13    7     7     3    1.4686E+02  1.3821E+00   1.4548E+02  0.000E+00  0.000E+00  0.000E+00  1.02969E+03  2.271E+00  5.522E+01  5.585E-01  8.249E-01
   1   13    6     8     1    2.3076E+02  1.0601E+00   2.2970E+02  0.000E+00  0.000E+00  0.000E+00  1.02518E+03  3.308E+00  4.796E+01  4.888E-01  7.230E-01
   1   13    5     8     2    2.2970E+02  2.2370E-01   2.2947E+02  0.000E+00  0.000E+00  0.000E+00  1.01893E+03  3.304E+00  4.791E+01  4.882E-01  1.527E-01
   1   13    4     8     3    2.2947E+02 -2.0979E+00   2.3157E+02  0.000E+00  0.000E+00  0.000E+00  1.01268E+03  3.309E+00  4.799E+01  4.890E+00 -1.430E-01
   1   13    3     8     4    2.3157E+02 -3.2813E+00   2.3485E+02  0.000E+00  0.000E+00  0.000E+00  1.00645E+03  3.324E+00  4.819E+01  4.911E+00 -2.227E-01
   1   13    2     8     5    2.3485E+02 -2.6428E+00   2.3749E+02  0.000E+00  0.000E+00  0.000E+00  1.00021E+03  3.340E+00  4.842E+01  4.935E+00 -1.785E-01
   1   13    1     8     6    2.3749E+02 -1.9963E+00   2.3949E+02  0.000E+00  0.000E+00  0.000E+00  9.95227E+02  3.352E+00  4.860E+01  2.972E+00 -2.239E-01



 UBDSV3 SAVING "           GW ET" ON UNIT  61 AT TIME STEP  5, STRESS PERIOD   7
 UBDSV3 SAVING "    UZF RECHARGE" ON UNIT  61 AT TIME STEP  5, STRESS PERIOD   7
 UBDSV3 SAVING " SURFACE LEAKAGE" ON UNIT  61 AT TIME STEP  5, STRESS PERIOD   7
 UBDSV3 SAVING "       HORT+DUNN" ON UNIT  61 AT TIME STEP  5, STRESS PERIOD   7
 UBDSV3 SAVING "  STORAGE CHANGE" ON UNIT  61 AT TIME STEP  5, STRESS PERIOD   7


UNSATURATED ZONE PACKAGE VOLUMETRIC BUDGET FOR  TIME STEP     5 STRESS PERIOD    7
  ------------------------------------------------------------------------------



     CUMULATIVE VOLUMES      L**3       RATES FOR THIS TIME STEP      L**3/T
     ------------------                 ------------------------

           IN:                                      IN:
           ---                                      ---
        INFILTRATION =    50868763.2645          INFILTRATION =          23.3175

          OUT:                                     OUT:
          ----                                     ----
              UZF ET =    50794575.4760                UZF ET =          23.3175
        UZF RECHARGE =       73224.0000          UZF RECHARGE =       0.0000E+00

            IN - OUT =         963.7885              IN - OUT =       2.8610E-06

          STORAGE:                                 STORAGE:
          --------                                 --------
      STORAGE CHANGE =         963.8941        STORAGE CHANGE =       2.1368E-06

 PERCENT DISCREPANCY IS DIFFERENCE BETWEEN IN-OUT MINUS CHANGE IN STORAGE
 DIVIDED BY THE AVERAGE OF IN AND OUT TIMES 100

 PERCENT DISCREPANCY =           0.00     PERCENT DISCREPANCY =           0.00






 

            AG WELLS      PERIOD    7   STEP   5
 AG WELL      1   LAYER   1   ROW     6   COL     4   RATE    -3.74500    
 AG WELL      2   LAYER   1   ROW     6   COL     5   RATE    -3.74500    
 AG WELL      3   LAYER   1   ROW     7   COL     4   RATE    -3.74500    
 AG WELL      4   LAYER   1   ROW     7   COL     5   RATE    -3.74500    
 AG WELL      5   LAYER   1   ROW     8   COL     4   RATE    -3.74500    
 AG WELL      6   LAYER   1   ROW     8   COL     5   RATE    -3.74500    
 
 

        GW IRRIGATION     PERIOD    7   STEP   5
 AG WELL      1   ROW     6   COL     4   RATE     3.74500    
 AG WELL      2   ROW     6   COL     5   RATE     3.74500    
 AG WELL      3   ROW     7   COL     4   RATE     3.74500    
 AG WELL      4   ROW     7   COL     5   RATE     3.74500    
 AG WELL      5   ROW     8   COL     4   RATE     3.74500    
 AG WELL      6   ROW     8   COL     5   RATE     3.74500    
 
1
  VOLUMETRIC BUDGET FOR AGRICULTURAL FIELDS AT  END OF TIME STEP    5, STRESS PERIOD   7
  ------------------------------------------------------------------------------

     CUMULATIVE VOLUMES      L**3       RATES FOR THIS TIME STEP      L**3/T
     ------------------                 ------------------------

           IN:                                      IN:
           ---                                      ---
               AG WELLS  =    39279432.0000                 AG WELLS  =          22.4700
      DIVERSION SEGMENTS =           0.0000        DIVERSION SEGMENTS =           0.0000
           GW IRRIGATION =           0.0000             GW IRRIGATION =           0.0000
           SW IRRIGATION =           0.0000             SW IRRIGATION =           0.0000
        SYSTEM LOSSES GW =           0.0000          SYSTEM LOSSES GW =           0.0000
        SYSTEM LOSSES SW =           0.0000          SYSTEM LOSSES SW =           0.0000

                TOTAL IN =    39279432.0000                  TOTAL IN =          22.4700

          OUT:                                     OUT:
          ----                                     ----
               AG WELLS  =           0.0000                 AG WELLS  =           0.0000
      DIVERSION SEGMENTS =           0.0000        DIVERSION SEGMENTS =           0.0000
           GW IRRIGATION =    39279432.0000             GW IRRIGATION =          22.4700
           SW IRRIGATION =           0.0000             SW IRRIGATION =           0.0000
        SYSTEM LOSSES GW =           0.0000          SYSTEM LOSSES GW =           0.0000
        SYSTEM LOSSES SW =           0.0000          SYSTEM LOSSES SW =           0.0000

               TOTAL OUT =    39279432.0000                 TOTAL OUT =          22.4700

                IN - OUT =           0.0000                  IN - OUT =           0.0000

     PERCENT DISCREPANCY =           0.00         PERCENT DISCREPANCY =           0.00



1
  VOLUMETRIC BUDGET FOR ENTIRE MODEL AT END OF TIME STEP    5, STRESS PERIOD   7
  ------------------------------------------------------------------------------

     CUMULATIVE VOLUMES      L**3       RATES FOR THIS TIME STEP      L**3/T
     ------------------                 ------------------------

           IN:                                      IN:
           ---                                      ---
             STORAGE     =    46421364.0000               STORAGE     =          22.7604
       CONSTANT HEAD     =           0.0000         CONSTANT HEAD     =           0.0000
     HEAD DEP BOUNDS     =     3903409.5000       HEAD DEP BOUNDS     =           0.2855
      STREAM LEAKAGE     =   172600848.0000        STREAM LEAKAGE     =          13.5284
        UZF RECHARGE     =       73223.9531          UZF RECHARGE     =           0.0000
               GW ET     =           0.0000                 GW ET     =           0.0000
     SURFACE LEAKAGE     =           0.0000       SURFACE LEAKAGE     =           0.0000
           AG WELLS      =           0.0000             AG WELLS      =           0.0000

                TOTAL IN =   222998832.0000                  TOTAL IN =          36.5743

          OUT:                                     OUT:
          ----                                     ----
             STORAGE     =    37712496.0000               STORAGE     =           2.0610
       CONSTANT HEAD     =           0.0000         CONSTANT HEAD     =           0.0000
     HEAD DEP BOUNDS     =     4016779.5000       HEAD DEP BOUNDS     =           0.3001
      STREAM LEAKAGE     =   139079184.0000        STREAM LEAKAGE     =          10.0183
        UZF RECHARGE     =           0.0000          UZF RECHARGE     =           0.0000
               GW ET     =     2913454.0000                 GW ET     =           1.7249
     SURFACE LEAKAGE     =           0.0000       SURFACE LEAKAGE     =           0.0000
           AG WELLS      =    39279432.0000             AG WELLS      =          22.4700

               TOTAL OUT =   223001344.0000                 TOTAL OUT =          36.5744

                IN - OUT =       -2512.0000                  IN - OUT =      -7.2479E-05

     PERCENT DISCREPANCY =          -0.00         PERCENT DISCREPANCY =          -0.00






         TIME SUMMARY AT END OF TIME STEP    5 IN STRESS PERIOD    7
                    SECONDS     MINUTES      HOURS       DAYS        YEARS
                    -----------------------------------------------------------
   TIME STEP LENGTH  87667.      1461.1      24.352      1.0147     2.77799E-03
 STRESS PERIOD TIME 4.38333E+05  7305.6      121.76      5.0733     1.38899E-02
         TOTAL TIME 1.36747E+07 2.27912E+05  3798.5      158.27     0.43333    
1
 
 SOLVING FOR HEAD 
                                                   Max.-Head-Change                         Max.-Flux-Residual
  Residual-Control   Outer-Iter.   Inner-Iter.     Column Row Layer    Maximum-Head-Change  Column Row Layer    Maximum-Flux-Residual          L2-NORM 
          0                 1           2             4    7     1      -0.6117326854E-01       4    7    1        -0.3203396165E+01      0.7268495372E+01
          0                 2           2             4    7     1       0.5950437719E-02       4    7    1         0.3203361900E+00      0.7267475622E+00
          0                 3           2             4    7     1      -0.4052032260E-03       4    7    1        -0.2242357316E-01      0.5086389185E-01
          0                 4           1             4    7     1       0.1612341320E-04       4    7    1         0.9171252811E-03      0.2079876435E-02

    ------------------------------------------------
       NWT REQUIRED            4 OUTER ITERATIONS 
       AND A TOTAL OF          7 INNER ITERATIONS.
    ------------------------------------------------

 NO OUTPUT CONTROL FOR STRESS PERIOD    7   TIME STEP    6
 
 SOLVING FOR HEAD 
                                                   Max.-Head-Change                         Max.-Flux-Residual
  Residual-Control   Outer-Iter.   Inner-Iter.     Column Row Layer    Maximum-Head-Change  Column Row Layer    Maximum-Flux-Residual          L2-NORM 
          0                 1           2             4    7     1      -0.6068362489E-01       4    7    1        -0.3178525833E+01      0.7164366675E+01
          0                 2           2             4    7     1       0.5902807632E-02       4    7    1         0.3178490769E+00      0.7163632131E+00
          0                 3           2             4    7     1      -0.4019598043E-03       4    7    1        -0.2224947593E-01      0.5013948722E-01
          0                 4           1             4    7     1       0.1599435447E-04       4    7    1         0.9100046843E-03      0.2050297196E-02

    ------------------------------------------------
       NWT REQUIRED            4 OUTER ITERATIONS 
       AND A TOTAL OF          7 INNER ITERATIONS.
    ------------------------------------------------

 NO OUTPUT CONTROL FOR STRESS PERIOD    7   TIME STEP    7
 
 SOLVING FOR HEAD 
                                                   Max.-Head-Change                         Max.-Flux-Residual
  Residual-Control   Outer-Iter.   Inner-Iter.     Column Row Layer    Maximum-Head-Change  Column Row Layer    Maximum-Flux-Residual          L2-NORM 
          0                 1           2             4    7     1      -0.6018453808E-01       4    7    1        -0.3153092960E+01      0.7066528452E+01
          0                 2           2             4    7     1       0.5854259181E-02       4    7    1         0.3153057233E+00      0.7065992682E+00
          0                 3           2             4    7     1      -0.3986538434E-03       4    7    1        -0.2207144171E-01      0.4945582860E-01
          0                 4           1             4    7     1       0.1586280737E-04       4    7    1         0.9027230642E-03      0.2021523270E-02

    ------------------------------------------------
       NWT REQUIRED            4 OUTER ITERATIONS 
       AND A TOTAL OF          7 INNER ITERATIONS.
    ------------------------------------------------

 NO OUTPUT CONTROL FOR STRESS PERIOD    7   TIME STEP    8
 
 SOLVING FOR HEAD 
                                                   Max.-Head-Change                         Max.-Flux-Residual
  Residual-Control   Outer-Iter.   Inner-Iter.     Column Row Layer    Maximum-Head-Change  Column Row Layer    Maximum-Flux-Residual          L2-NORM 
          0                 1           2             4    7     1      -0.5967705364E-01       4    7    1        -0.3127155682E+01      0.6973897069E+01
          0                 2           2             4    7     1       0.5804894049E-02       4    7    1         0.3127119415E+00      0.6973499033E+00
          0                 3           2             4    7     1      -0.3952922686E-03       4    7    1        -0.2188987743E-01      0.4881161281E-01
          0                 4           1             4    7     1       0.1572904706E-04       4    7    1         0.8952970927E-03      0.1996355254E-02

    ------------------------------------------------
       NWT REQUIRED            4 OUTER ITERATIONS 
       AND A TOTAL OF          7 INNER ITERATIONS.
    ------------------------------------------------

 NO OUTPUT CONTROL FOR STRESS PERIOD    7   TIME STEP    9
 
 SOLVING FOR HEAD 
                                                   Max.-Head-Change                         Max.-Flux-Residual
  Residual-Control   Outer-Iter.   Inner-Iter.     Column Row Layer    Maximum-Head-Change  Column Row Layer    Maximum-Flux-Residual          L2-NORM 
          0                 1           2             4    7     1      -0.5916268826E-01       4    7    1        -0.3100797794E+01      0.6885732228E+01
          0                 2           2             4    7     1       0.5754859754E-02       4    7    1         0.3100761102E+00      0.6885432328E+00
          0                 3           2             4    7     1      -0.3918851240E-03       4    7    1        -0.2170536955E-01      0.4819603802E-01
          0                 4           1             4    7     1       0.1559347349E-04       4    7    1         0.8877506982E-03      0.1971066628E-02

    ------------------------------------------------
       NWT REQUIRED            4 OUTER ITERATIONS 
       AND A TOTAL OF          7 INNER ITERATIONS.
    ------------------------------------------------

 OUTPUT CONTROL FOR STRESS PERIOD    7   TIME STEP   10
    PRINT BUDGET
    SAVE BUDGET
 UBDSV1 SAVING "         STORAGE" ON UNIT 102 AT TIME STEP 10, STRESS PERIOD   7
 UBDSV2 SAVING "   CONSTANT HEAD" ON UNIT 102 AT TIME STEP 10, STRESS PERIOD   7
 UBDSV1 SAVING "FLOW RIGHT FACE " ON UNIT 102 AT TIME STEP 10, STRESS PERIOD   7
 UBDSV1 SAVING "FLOW FRONT FACE " ON UNIT 102 AT TIME STEP 10, STRESS PERIOD   7

  HEAD DEP BOUNDS   PERIOD    7   STEP    10
 BOUNDARY      1   LAYER   1   ROW    13   COL     1   RATE   -0.300044    
 BOUNDARY      2   LAYER   1   ROW    14   COL     9   RATE    0.285490    



 STREAM LISTING     PERIOD      7   STEP       10

 LAYER ROW COL. STREAM  RCH.  FLOW INTO     FLOW TO   FLOW OUT OF   OVRLND.     DIRECT     STREAM       STREAM     STREAM     STREAM   STREAMBED  STREAMBED
                SEG.NO.  NO.  STRM. RCH.    AQUIFER    STRM. RCH.    RUNOFF     PRECIP       ET          HEAD       DEPTH      WIDTH   CONDCTNC.   GRADIENT

   1    1    1     1     1    8.3000E+01  4.4019E-01   8.2560E+01  0.000E+00  0.000E+00  0.000E+00  1.09478E+03  1.734E+00  2.066E+01  9.299E-02  1.578E+00
   1    2    2     1     2    8.2560E+01  6.8286E-01   8.1877E+01  0.000E+00  0.000E+00  0.000E+00  1.08979E+03  1.731E+00  2.062E+01  1.443E-01  1.577E+00
   1    3    3     1     3    8.1877E+01  5.8349E-01   8.1294E+01  0.000E+00  0.000E+00  0.000E+00  1.08415E+03  1.729E+00  2.057E+01  1.234E-01  1.576E+00
   1    3    4     1     4    8.1294E+01  5.3822E-01   8.0756E+01  0.000E+00  0.000E+00  0.000E+00  1.07913E+03  1.726E+00  2.052E+01  1.139E-01  1.575E+00
   1    4    5     2     1    7.8756E+01  4.2120E-01   7.8334E+01  0.000E+00  0.000E+00  0.000E+00  1.07433E+03  2.400E+00  1.200E+01  7.800E-02  1.800E+00
   1    5    6     2     2    7.8334E+01  3.2359E-01   7.8011E+01  0.000E+00  0.000E+00  0.000E+00  1.06890E+03  2.393E+00  1.200E+01  6.000E-02  1.798E+00
   1    6    6     2     3    7.8011E+01  3.2323E-01   7.7688E+01  0.000E+00  0.000E+00  0.000E+00  1.06418E+03  2.387E+00  1.200E+01  6.000E-02  1.796E+00
   1    7    6     2     4    7.7688E+01  3.2288E-01   7.7365E+01  0.000E+00  0.000E+00  0.000E+00  1.05946E+03  2.381E+00  1.200E+01  6.000E-02  1.794E+00
   1    8    6     2     5    7.7365E+01  3.2252E-01   7.7042E+01  0.000E+00  0.000E+00  0.000E+00  1.05473E+03  2.375E+00  1.200E+01  6.000E-02  1.792E+00
   1    3    5     3     1    2.0000E+00  2.8252E-01   1.7175E+00  0.000E+00  0.000E+00  0.000E+00  1.07555E+03  1.909E+00  9.636E+00  7.227E-02  1.955E+00
   1    3    6     3     2    1.7175E+00  2.4905E-01   1.4684E+00  0.000E+00  0.000E+00  0.000E+00  1.07264E+03  1.727E+00  8.909E+00  6.682E-02  1.864E+00
   1    3    7     3     3    1.4684E+00  1.9718E-01   1.2712E+00  0.000E+00  0.000E+00  0.000E+00  1.06987E+03  1.555E+00  8.218E+00  5.547E-02  1.777E+00
   1    4    8     3     4    1.2712E+00  2.2567E-01   1.0456E+00  0.000E+00  0.000E+00  0.000E+00  1.06682E+03  1.364E+00  7.455E+00  6.709E-02  1.682E+00
   1    5    8     3     5    1.0456E+00  1.5790E-01   8.8768E-01  0.000E+00  0.000E+00  0.000E+00  1.06362E+03  1.164E+00  6.655E+00  4.991E-02  1.582E+00
   1    6    8     3     6    8.8768E-01  5.5980E-02   8.3170E-01  0.000E+00  0.000E+00  0.000E+00  1.06158E+03  1.036E+00  6.145E+00  1.844E-02  1.518E+00
   1    5   10     4     1    1.0000E+01  9.0919E-02   9.9091E+00  0.000E+00  0.000E+00  0.000E+00  1.07836E+03  6.368E-01  1.000E+01  2.500E-02  1.212E+00
   1    5    9     4     2    9.9091E+00  1.8158E-01   9.7275E+00  0.000E+00  0.000E+00  0.000E+00  1.07154E+03  6.315E-01  1.000E+01  5.000E-02  1.211E+00
   1    6    8     4     3    9.7275E+00  1.2689E-01   9.6006E+00  0.000E+00  0.000E+00  0.000E+00  1.06381E+03  6.256E-01  1.000E+01  3.500E-02  1.209E+00
   1    6    8     5     1    1.0432E+01  2.2686E-01   1.0205E+01  0.000E+00  0.000E+00  0.000E+00  1.05868E+03  6.790E-01  1.542E+01  6.166E-02  1.226E+00
   1    7    7     5     2    1.0205E+01  2.7894E-01   9.9265E+00  0.000E+00  0.000E+00  0.000E+00  1.05417E+03  6.732E-01  1.519E+01  7.594E-02  1.224E+00
   1    8    7     5     3    9.9265E+00  1.9221E-01   9.7343E+00  0.000E+00  0.000E+00  0.000E+00  1.04992E+03  6.676E-01  1.497E+01  5.241E-02  1.223E+00
   1    8    6     5     4    9.7343E+00  1.3577E-01   9.5985E+00  0.000E+00  0.000E+00  0.000E+00  1.04691E+03  6.637E-01  1.482E+01  3.706E-02  1.221E+00
   1    9    6     6     1    8.6641E+01  3.3426E-01   8.6306E+01  0.000E+00  0.000E+00  0.000E+00  1.04530E+03  2.571E+00  1.200E+01  6.000E-02  1.857E+00
   1   10    7     6     2    8.6306E+01  3.3390E-01   8.5973E+01  0.000E+00  0.000E+00  0.000E+00  1.04075E+03  2.565E+00  1.200E+01  6.000E-02  1.855E+00
   1   11    7     6     3    8.5973E+01  3.3354E-01   8.5639E+01  0.000E+00  0.000E+00  0.000E+00  1.03620E+03  2.559E+00  1.200E+01  6.000E-02  1.853E+00
   1   12    7     6     4    8.5639E+01  3.3319E-01   8.5306E+01  0.000E+00  0.000E+00  0.000E+00  1.03164E+03  2.553E+00  1.200E+01  6.000E-02  1.851E+00
   1   13    7     6     5    8.5306E+01  2.9753E-02   8.5276E+01  0.000E+00  0.000E+00  0.000E+00  1.02846E+03  2.550E+00  1.200E+01  2.400E-02  4.132E-01
   1   14    9     7     1    1.5000E+02  1.3319E+00   1.4867E+02  0.000E+00  0.000E+00  0.000E+00  1.03987E+03  2.288E+00  5.529E+01  5.593E-01  7.938E-01
   1   13    8     7     2    1.4867E+02  1.8054E+00   1.4686E+02  0.000E+00  0.000E+00  0.000E+00  1.03478E+03  2.279E+00  5.526E+01  6.148E-01  9.789E-01
   1   13    7     7     3    1.4686E+02  1.3800E+00   1.4548E+02  0.000E+00  0.000E+00  0.000E+00  1.02969E+03  2.271E+00  5.522E+01  5.585E-01  8.237E-01
   1   13    6     8     1    2.3076E+02  1.0581E+00   2.2970E+02  0.000E+00  0.000E+00  0.000E+00  1.02518E+03  3.308E+00  4.796E+01  4.888E-01  7.216E-01
   1   13    5     8     2    2.2970E+02  2.2293E-01   2.2948E+02  0.000E+00  0.000E+00  0.000E+00  1.01893E+03  3.304E+00  4.791E+01  4.882E-01  1.522E-01
   1   13    4     8     3    2.2948E+02 -2.0110E+00   2.3149E+02  0.000E+00  0.000E+00  0.000E+00  1.01268E+03  3.309E+00  4.798E+01  4.890E+00 -1.371E-01
   1   13    3     8     4    2.3149E+02 -3.1903E+00   2.3468E+02  0.000E+00  0.000E+00  0.000E+00  1.00645E+03  3.323E+00  4.819E+01  4.910E+00 -2.166E-01
   1   13    2     8     5    2.3468E+02 -2.5909E+00   2.3727E+02  0.000E+00  0.000E+00  0.000E+00  1.00021E+03  3.339E+00  4.841E+01  4.933E+00 -1.751E-01
   1   13    1     8     6    2.3727E+02 -1.9910E+00   2.3926E+02  0.000E+00  0.000E+00  0.000E+00  9.95226E+02  3.351E+00  4.858E+01  2.971E+00 -2.234E-01



 UBDSV3 SAVING "           GW ET" ON UNIT  61 AT TIME STEP 10, STRESS PERIOD   7
 UBDSV3 SAVING "    UZF RECHARGE" ON UNIT  61 AT TIME STEP 10, STRESS PERIOD   7
 UBDSV3 SAVING " SURFACE LEAKAGE" ON UNIT  61 AT TIME STEP 10, STRESS PERIOD   7
 UBDSV3 SAVING "       HORT+DUNN" ON UNIT  61 AT TIME STEP 10, STRESS PERIOD   7
 UBDSV3 SAVING "  STORAGE CHANGE" ON UNIT  61 AT TIME STEP 10, STRESS PERIOD   7


UNSATURATED ZONE PACKAGE VOLUMETRIC BUDGET FOR  TIME STEP    10 STRESS PERIOD    7
  ------------------------------------------------------------------------------



     CUMULATIVE VOLUMES      L**3       RATES FOR THIS TIME STEP      L**3/T
     ------------------                 ------------------------

           IN:                                      IN:
           ---                                      ---
        INFILTRATION =    61089601.6814          INFILTRATION =          23.3175

          OUT:                                     OUT:
          ----                                     ----
              UZF ET =    61015412.9554                UZF ET =          23.3175
        UZF RECHARGE =       73224.0000          UZF RECHARGE =       0.0000E+00

            IN - OUT =         964.7260              IN - OUT =       2.8610E-06

          STORAGE:                                 STORAGE:
          --------                                 --------
      STORAGE CHANGE =         964.8307        STORAGE CHANGE =       2.1354E-06

 PERCENT DISCREPANCY IS DIFFERENCE BETWEEN IN-OUT MINUS CHANGE IN STORAGE
 DIVIDED BY THE AVERAGE OF IN AND OUT TIMES 100

 PERCENT DISCREPANCY =           0.00     PERCENT DISCREPANCY =           0.00






 

            AG WELLS      PERIOD    7   STEP  10
 AG WELL      1   LAYER   1   ROW     6   COL     4   RATE    -3.74500    
 AG WELL      2   LAYER   1   ROW     6   COL     5   RATE    -3.74500    
 AG WELL      3   LAYER   1   ROW     7   COL     4   RATE    -3.74500    
 AG WELL      4   LAYER   1   ROW     7   COL     5   RATE    -3.74500    
 AG WELL      5   LAYER   1   ROW     8   COL     4   RATE    -3.74500    
 AG WELL      6   LAYER   1   ROW     8   COL     5   RATE    -3.74500    
 
 

        GW IRRIGATION     PERIOD    7   STEP  10
 AG WELL      1   ROW     6   COL     4   RATE     3.74500    
 AG WELL      2   ROW     6   COL     5   RATE     3.74500    
 AG WELL      3   ROW     7   COL     4   RATE     3.74500    
 AG WELL      4   ROW     7   COL     5   RATE     3.74500    
 AG WELL      5   ROW     8   COL     4   RATE     3.74500    
 AG WELL      6   ROW     8   COL     5   RATE     3.74500    
 
1
  VOLUMETRIC BUDGET FOR AGRICULTURAL FIELDS AT  END OF TIME STEP   10, STRESS PERIOD   7
  ------------------------------------------------------------------------------

     CUMULATIVE VOLUMES      L**3       RATES FOR THIS TIME STEP      L**3/T
     ------------------                 ------------------------

           IN:                                      IN:
           ---                                      ---
               AG WELLS  =    49128792.0000                 AG WELLS  =          22.4700
      DIVERSION SEGMENTS =           0.0000        DIVERSION SEGMENTS =           0.0000
           GW IRRIGATION =           0.0000             GW IRRIGATION =           0.0000
           SW IRRIGATION =           0.0000             SW IRRIGATION =           0.0000
        SYSTEM LOSSES GW =           0.0000          SYSTEM LOSSES GW =           0.0000
        SYSTEM LOSSES SW =           0.0000          SYSTEM LOSSES SW =           0.0000

                TOTAL IN =    49128792.0000                  TOTAL IN =          22.4700

          OUT:                                     OUT:
          ----                                     ----
               AG WELLS  =           0.0000                 AG WELLS  =           0.0000
      DIVERSION SEGMENTS =           0.0000        DIVERSION SEGMENTS =           0.0000
           GW IRRIGATION =    49128792.0000             GW IRRIGATION =          22.4700
           SW IRRIGATION =           0.0000             SW IRRIGATION =           0.0000
        SYSTEM LOSSES GW =           0.0000          SYSTEM LOSSES GW =           0.0000
        SYSTEM LOSSES SW =           0.0000          SYSTEM LOSSES SW =           0.0000

               TOTAL OUT =    49128792.0000                 TOTAL OUT =          22.4700

                IN - OUT =           0.0000                  IN - OUT =           0.0000

     PERCENT DISCREPANCY =           0.00         PERCENT DISCREPANCY =           0.00



1
  VOLUMETRIC BUDGET FOR ENTIRE MODEL AT END OF TIME STEP   10, STRESS PERIOD   7
  ------------------------------------------------------------------------------

     CUMULATIVE VOLUMES      L**3       RATES FOR THIS TIME STEP      L**3/T
     ------------------                 ------------------------

           IN:                                      IN:
           ---                                      ---
             STORAGE     =    56216140.0000               STORAGE     =          22.1461
       CONSTANT HEAD     =           0.0000         CONSTANT HEAD     =           0.0000
     HEAD DEP BOUNDS     =     4028549.5000       HEAD DEP BOUNDS     =           0.2855
      STREAM LEAKAGE     =   178529248.0000        STREAM LEAKAGE     =          13.5226
        UZF RECHARGE     =       73223.9531          UZF RECHARGE     =           0.0000
               GW ET     =           0.0000                 GW ET     =           0.0000
     SURFACE LEAKAGE     =           0.0000       SURFACE LEAKAGE     =           0.0000
           AG WELLS      =           0.0000             AG WELLS      =           0.0000

                TOTAL IN =   238847152.0000                  TOTAL IN =          35.9542

          OUT:                                     OUT:
          ----                                     ----
             STORAGE     =    38584564.0000               STORAGE     =           1.9533
       CONSTANT HEAD     =           0.0000         CONSTANT HEAD     =           0.0000
     HEAD DEP BOUNDS     =     4148316.2500       HEAD DEP BOUNDS     =           0.3000
      STREAM LEAKAGE     =   143401584.0000        STREAM LEAKAGE     =           9.7833
        UZF RECHARGE     =           0.0000          UZF RECHARGE     =           0.0000
               GW ET     =     3586412.5000                 GW ET     =           1.4476
     SURFACE LEAKAGE     =           0.0000       SURFACE LEAKAGE     =           0.0000
           AG WELLS      =    49128792.0000             AG WELLS      =          22.4700

               TOTAL OUT =   238849664.0000                 TOTAL OUT =          35.9543

                IN - OUT =       -2512.0000                  IN - OUT =      -6.8665E-05

     PERCENT DISCREPANCY =          -0.00         PERCENT DISCREPANCY =          -0.00






         TIME SUMMARY AT END OF TIME STEP   10 IN STRESS PERIOD    7
                    SECONDS     MINUTES      HOURS       DAYS        YEARS
                    -----------------------------------------------------------
   TIME STEP LENGTH  87667.      1461.1      24.352      1.0147     2.77799E-03
 STRESS PERIOD TIME 8.76667E+05  14611.      243.52      10.147     2.77799E-02
         TOTAL TIME 1.41131E+07 2.35218E+05  3920.3      163.35     0.44722    
1
 
 SOLVING FOR HEAD 
                                                   Max.-Head-Change                         Max.-Flux-Residual
  Residual-Control   Outer-Iter.   Inner-Iter.     Column Row Layer    Maximum-Head-Change  Column Row Layer    Maximum-Flux-Residual          L2-NORM 
          0                 1           2             4    7     1      -0.5864203043E-01       4    7    1        -0.3074053568E+01      0.6801446672E+01
          0                 2           2             4    7     1       0.5704213527E-02       4    7    1         0.3074016554E+00      0.6801214946E+00
          0                 3           2             4    7     1      -0.3884363080E-03       4    7    1        -0.2151815795E-01      0.4760705687E-01
          0                 4           1             4    7     1       0.1545624208E-04       4    7    1         0.8800937399E-03      0.1947053148E-02

    ------------------------------------------------
       NWT REQUIRED            4 OUTER ITERATIONS 
       AND A TOTAL OF          7 INNER ITERATIONS.
    ------------------------------------------------

 NO OUTPUT CONTROL FOR STRESS PERIOD    7   TIME STEP   11
 
 SOLVING FOR HEAD 
                                                   Max.-Head-Change                         Max.-Flux-Residual
  Residual-Control   Outer-Iter.   Inner-Iter.     Column Row Layer    Maximum-Head-Change  Column Row Layer    Maximum-Flux-Residual          L2-NORM 
          0                 1           2             4    7     1      -0.5811671896E-01       4    7    1        -0.3047012673E+01      0.6720624863E+01
          0                 2           2             4    7     1       0.5653114764E-02       4    7    1         0.3046975432E+00      0.6720442162E+00
          0                 3           2             4    7     1      -0.3849566739E-03       4    7    1        -0.2132887021E-01      0.4704210677E-01
          0                 4           1             4    7     1       0.1531778387E-04       4    7    1         0.8723518511E-03      0.1923957557E-02

    ------------------------------------------------
       NWT REQUIRED            4 OUTER ITERATIONS 
       AND A TOTAL OF          7 INNER ITERATIONS.
    ------------------------------------------------

 NO OUTPUT CONTROL FOR STRESS PERIOD    7   TIME STEP   12
 
 SOLVING FOR HEAD 
                                                   Max.-Head-Change                         Max.-Flux-Residual
  Residual-Control   Outer-Iter.   Inner-Iter.     Column Row Layer    Maximum-Head-Change  Column Row Layer    Maximum-Flux-Residual          L2-NORM 
          0                 1           2             4    7     1      -0.5758746228E-01       4    7    1        -0.3019715716E+01      0.6642917003E+01
          0                 2           2             4    7     1       0.5601632364E-02       4    7    1         0.3019678333E+00      0.6642769248E+00
          0                 3           2             4    7     1      -0.3814509149E-03       4    7    1        -0.2113779057E-01      0.4649869255E-01
          0                 4           1             4    7     1       0.1517828652E-04       4    7    1         0.8645366747E-03      0.1901745451E-02

    ------------------------------------------------
       NWT REQUIRED            4 OUTER ITERATIONS 
       AND A TOTAL OF          7 INNER ITERATIONS.
    ------------------------------------------------

 NO OUTPUT CONTROL FOR STRESS PERIOD    7   TIME STEP   13
 
 SOLVING FOR HEAD 
                                                   Max.-Head-Change                         Max.-Flux-Residual
  Residual-Control   Outer-Iter.   Inner-Iter.     Column Row Layer    Maximum-Head-Change  Column Row Layer    Maximum-Flux-Residual          L2-NORM 
          0                 1           2             4    7     1      -0.5705519517E-01       4    7    1        -0.2992214218E+01      0.6568076936E+01
          0                 2           2             4    7     1       0.5549857245E-02       4    7    1         0.2992176772E+00      0.6567954711E+00
          0                 3           2             4    7     1      -0.3779252220E-03       4    7    1        -0.2094527963E-01      0.4597519936E-01
          0                 4           1             4    7     1       0.1503799594E-04       4    7    1         0.8566629799E-03      0.1880365889E-02

    ------------------------------------------------
       NWT REQUIRED            4 OUTER ITERATIONS 
       AND A TOTAL OF          7 INNER ITERATIONS.
    ------------------------------------------------

 NO OUTPUT CONTROL FOR STRESS PERIOD    7   TIME STEP   14
 
 SOLVING FOR HEAD 
                                                   Max.-Head-Change                         Max.-Flux-Residual
  Residual-Control   Outer-Iter.   Inner-Iter.     Column Row Layer    Maximum-Head-Change  Column Row Layer    Maximum-Flux-Residual          L2-NORM 
          0                 1           2             4    7     1      -0.5652077187E-01       4    7    1        -0.2964556647E+01      0.6495869848E+01
          0                 2           2             4    7     1       0.5497872489E-02       4    7    1         0.2964519208E+00      0.6495765941E+00
          0                 3           2             4    7     1      -0.3743852526E-03       4    7    1        -0.2075167659E-01      0.4547000307E-01
          0                 4           1             4    7     1       0.1489713755E-04       4    7    1         0.8487446244E-03      0.1859697848E-02

    ------------------------------------------------
       NWT REQUIRED            4 OUTER ITERATIONS 
       AND A TOTAL OF          7 INNER ITERATIONS.
    ------------------------------------------------

 OUTPUT CONTROL FOR STRESS PERIOD    7   TIME STEP   15
    PRINT BUDGET
    SAVE BUDGET
 UBDSV1 SAVING "         STORAGE" ON UNIT 102 AT TIME STEP 15, STRESS PERIOD   7
 UBDSV2 SAVING "   CONSTANT HEAD" ON UNIT 102 AT TIME STEP 15, STRESS PERIOD   7
 UBDSV1 SAVING "FLOW RIGHT FACE " ON UNIT 102 AT TIME STEP 15, STRESS PERIOD   7
 UBDSV1 SAVING "FLOW FRONT FACE " ON UNIT 102 AT TIME STEP 15, STRESS PERIOD   7

  HEAD DEP BOUNDS   PERIOD    7   STEP    15
 BOUNDARY      1   LAYER   1   ROW    13   COL     1   RATE   -0.299953    
 BOUNDARY      2   LAYER   1   ROW    14   COL     9   RATE    0.285489    



 STREAM LISTING     PERIOD      7   STEP       15

 LAYER ROW COL. STREAM  RCH.  FLOW INTO     FLOW TO   FLOW OUT OF   OVRLND.     DIRECT     STREAM       STREAM     STREAM     STREAM   STREAMBED  STREAMBED
                SEG.NO.  NO.  STRM. RCH.    AQUIFER    STRM. RCH.    RUNOFF     PRECIP       ET          HEAD       DEPTH      WIDTH   CONDCTNC.   GRADIENT

   1    1    1     1     1    8.3000E+01  4.4019E-01   8.2560E+01  0.000E+00  0.000E+00  0.000E+00  1.09478E+03  1.734E+00  2.066E+01  9.299E-02  1.578E+00
   1    2    2     1     2    8.2560E+01  6.8286E-01   8.1877E+01  0.000E+00  0.000E+00  0.000E+00  1.08979E+03  1.731E+00  2.062E+01  1.443E-01  1.577E+00
   1    3    3     1     3    8.1877E+01  5.8349E-01   8.1294E+01  0.000E+00  0.000E+00  0.000E+00  1.08415E+03  1.729E+00  2.057E+01  1.234E-01  1.576E+00
   1    3    4     1     4    8.1294E+01  5.3822E-01   8.0756E+01  0.000E+00  0.000E+00  0.000E+00  1.07913E+03  1.726E+00  2.052E+01  1.139E-01  1.575E+00
   1    4    5     2     1    7.8756E+01  4.2120E-01   7.8334E+01  0.000E+00  0.000E+00  0.000E+00  1.07433E+03  2.400E+00  1.200E+01  7.800E-02  1.800E+00
   1    5    6     2     2    7.8334E+01  3.2359E-01   7.8011E+01  0.000E+00  0.000E+00  0.000E+00  1.06890E+03  2.393E+00  1.200E+01  6.000E-02  1.798E+00
   1    6    6     2     3    7.8011E+01  3.2323E-01   7.7688E+01  0.000E+00  0.000E+00  0.000E+00  1.06418E+03  2.387E+00  1.200E+01  6.000E-02  1.796E+00
   1    7    6     2     4    7.7688E+01  3.2288E-01   7.7365E+01  0.000E+00  0.000E+00  0.000E+00  1.05946E+03  2.381E+00  1.200E+01  6.000E-02  1.794E+00
   1    8    6     2     5    7.7365E+01  3.2252E-01   7.7042E+01  0.000E+00  0.000E+00  0.000E+00  1.05473E+03  2.375E+00  1.200E+01  6.000E-02  1.792E+00
   1    3    5     3     1    2.0000E+00  2.8252E-01   1.7175E+00  0.000E+00  0.000E+00  0.000E+00  1.07555E+03  1.909E+00  9.636E+00  7.227E-02  1.955E+00
   1    3    6     3     2    1.7175E+00  2.4905E-01   1.4684E+00  0.000E+00  0.000E+00  0.000E+00  1.07264E+03  1.727E+00  8.909E+00  6.682E-02  1.864E+00
   1    3    7     3     3    1.4684E+00  1.9718E-01   1.2712E+00  0.000E+00  0.000E+00  0.000E+00  1.06987E+03  1.555E+00  8.218E+00  5.547E-02  1.777E+00
   1    4    8     3     4    1.2712E+00  2.2567E-01   1.0456E+00  0.000E+00  0.000E+00  0.000E+00  1.06682E+03  1.364E+00  7.455E+00  6.709E-02  1.682E+00
   1    5    8     3     5    1.0456E+00  1.5790E-01   8.8768E-01  0.000E+00  0.000E+00  0.000E+00  1.06362E+03  1.164E+00  6.655E+00  4.991E-02  1.582E+00
   1    6    8     3     6    8.8768E-01  5.5980E-02   8.3170E-01  0.000E+00  0.000E+00  0.000E+00  1.06158E+03  1.036E+00  6.145E+00  1.844E-02  1.518E+00
   1    5   10     4     1    1.0000E+01  9.0919E-02   9.9091E+00  0.000E+00  0.000E+00  0.000E+00  1.07836E+03  6.368E-01  1.000E+01  2.500E-02  1.212E+00
   1    5    9     4     2    9.9091E+00  1.8158E-01   9.7275E+00  0.000E+00  0.000E+00  0.000E+00  1.07154E+03  6.315E-01  1.000E+01  5.000E-02  1.211E+00
   1    6    8     4     3    9.7275E+00  1.2689E-01   9.6006E+00  0.000E+00  0.000E+00  0.000E+00  1.06381E+03  6.256E-01  1.000E+01  3.500E-02  1.209E+00
   1    6    8     5     1    1.0432E+01  2.2686E-01   1.0205E+01  0.000E+00  0.000E+00  0.000E+00  1.05868E+03  6.790E-01  1.542E+01  6.166E-02  1.226E+00
   1    7    7     5     2    1.0205E+01  2.7894E-01   9.9265E+00  0.000E+00  0.000E+00  0.000E+00  1.05417E+03  6.732E-01  1.519E+01  7.594E-02  1.224E+00
   1    8    7     5     3    9.9265E+00  1.9221E-01   9.7343E+00  0.000E+00  0.000E+00  0.000E+00  1.04992E+03  6.676E-01  1.497E+01  5.241E-02  1.223E+00
   1    8    6     5     4    9.7343E+00  1.3577E-01   9.5985E+00  0.000E+00  0.000E+00  0.000E+00  1.04691E+03  6.637E-01  1.482E+01  3.706E-02  1.221E+00
   1    9    6     6     1    8.6641E+01  3.3426E-01   8.6306E+01  0.000E+00  0.000E+00  0.000E+00  1.04530E+03  2.571E+00  1.200E+01  6.000E-02  1.857E+00
   1   10    7     6     2    8.6306E+01  3.3390E-01   8.5973E+01  0.000E+00  0.000E+00  0.000E+00  1.04075E+03  2.565E+00  1.200E+01  6.000E-02  1.855E+00
   1   11    7     6     3    8.5973E+01  3.3354E-01   8.5639E+01  0.000E+00  0.000E+00  0.000E+00  1.03620E+03  2.559E+00  1.200E+01  6.000E-02  1.853E+00
   1   12    7     6     4    8.5639E+01  3.3319E-01   8.5306E+01  0.000E+00  0.000E+00  0.000E+00  1.03164E+03  2.553E+00  1.200E+01  6.000E-02  1.851E+00
   1   13    7     6     5    8.5306E+01  2.9667E-02   8.5276E+01  0.000E+00  0.000E+00  0.000E+00  1.02846E+03  2.550E+00  1.200E+01  2.400E-02  4.120E-01
   1   14    9     7     1    1.5000E+02  1.3319E+00   1.4867E+02  0.000E+00  0.000E+00  0.000E+00  1.03987E+03  2.288E+00  5.529E+01  5.593E-01  7.938E-01
   1   13    8     7     2    1.4867E+02  1.8047E+00   1.4686E+02  0.000E+00  0.000E+00  0.000E+00  1.03478E+03  2.279E+00  5.526E+01  6.148E-01  9.785E-01
   1   13    7     7     3    1.4686E+02  1.3780E+00   1.4549E+02  0.000E+00  0.000E+00  0.000E+00  1.02969E+03  2.271E+00  5.522E+01  5.585E-01  8.225E-01
   1   13    6     8     1    2.3076E+02  1.0561E+00   2.2971E+02  0.000E+00  0.000E+00  0.000E+00  1.02518E+03  3.308E+00  4.796E+01  4.888E-01  7.203E-01
   1   13    5     8     2    2.2971E+02  2.2234E-01   2.2948E+02  0.000E+00  0.000E+00  0.000E+00  1.01893E+03  3.304E+00  4.791E+01  4.883E-01  1.518E-01
   1   13    4     8     3    2.2948E+02 -1.9821E+00   2.3147E+02  0.000E+00  0.000E+00  0.000E+00  1.01268E+03  3.309E+00  4.798E+01  4.890E+00 -1.351E-01
   1   13    3     8     4    2.3147E+02 -3.1580E+00   2.3462E+02  0.000E+00  0.000E+00  0.000E+00  1.00645E+03  3.323E+00  4.818E+01  4.910E+00 -2.144E-01
   1   13    2     8     5    2.3462E+02 -2.5558E+00   2.3718E+02  0.000E+00  0.000E+00  0.000E+00  1.00021E+03  3.338E+00  4.840E+01  4.932E+00 -1.727E-01
   1   13    1     8     6    2.3718E+02 -1.9851E+00   2.3916E+02  0.000E+00  0.000E+00  0.000E+00  9.95225E+02  3.350E+00  4.858E+01  2.970E+00 -2.228E-01



 UBDSV3 SAVING "           GW ET" ON UNIT  61 AT TIME STEP 15, STRESS PERIOD   7
 UBDSV3 SAVING "    UZF RECHARGE" ON UNIT  61 AT TIME STEP 15, STRESS PERIOD   7
 UBDSV3 SAVING " SURFACE LEAKAGE" ON UNIT  61 AT TIME STEP 15, STRESS PERIOD   7
 UBDSV3 SAVING "       HORT+DUNN" ON UNIT  61 AT TIME STEP 15, STRESS PERIOD   7
 UBDSV3 SAVING "  STORAGE CHANGE" ON UNIT  61 AT TIME STEP 15, STRESS PERIOD   7


UNSATURATED ZONE PACKAGE VOLUMETRIC BUDGET FOR  TIME STEP    15 STRESS PERIOD    7
  ------------------------------------------------------------------------------



     CUMULATIVE VOLUMES      L**3       RATES FOR THIS TIME STEP      L**3/T
     ------------------                 ------------------------

           IN:                                      IN:
           ---                                      ---
        INFILTRATION =    71310440.0983          INFILTRATION =          23.3175

          OUT:                                     OUT:
          ----                                     ----
              UZF ET =    71236250.4348                UZF ET =          23.3175
        UZF RECHARGE =       73224.0000          UZF RECHARGE =       0.0000E+00

            IN - OUT =         965.6635              IN - OUT =       2.8610E-06

          STORAGE:                                 STORAGE:
          --------                                 --------
      STORAGE CHANGE =         965.7642        STORAGE CHANGE =       2.1295E-06

 PERCENT DISCREPANCY IS DIFFERENCE BETWEEN IN-OUT MINUS CHANGE IN STORAGE
 DIVIDED BY THE AVERAGE OF IN AND OUT TIMES 100

 PERCENT DISCREPANCY =           0.00     PERCENT DISCREPANCY =           0.00






 

            AG WELLS      PERIOD    7   STEP  15
 AG WELL      1   LAYER   1   ROW     6   COL     4   RATE    -3.74500    
 AG WELL      2   LAYER   1   ROW     6   COL     5   RATE    -3.74500    
 AG WELL      3   LAYER   1   ROW     7   COL     4   RATE    -3.74500    
 AG WELL      4   LAYER   1   ROW     7   COL     5   RATE    -3.74500    
 AG WELL      5   LAYER   1   ROW     8   COL     4   RATE    -3.74500    
 AG WELL      6   LAYER   1   ROW     8   COL     5   RATE    -3.74500    
 
 

        GW IRRIGATION     PERIOD    7   STEP  15
 AG WELL      1   ROW     6   COL     4   RATE     3.74500    
 AG WELL      2   ROW     6   COL     5   RATE     3.74500    
 AG WELL      3   ROW     7   COL     4   RATE     3.74500    
 AG WELL      4   ROW     7   COL     5   RATE     3.74500    
 AG WELL      5   ROW     8   COL     4   RATE     3.74500    
 AG WELL      6   ROW     8   COL     5   RATE     3.74500    
 
1
  VOLUMETRIC BUDGET FOR AGRICULTURAL FIELDS AT  END OF TIME STEP   15, STRESS PERIOD   7
  ------------------------------------------------------------------------------

     CUMULATIVE VOLUMES      L**3       RATES FOR THIS TIME STEP      L**3/T
     ------------------                 ------------------------

           IN:                                      IN:
           ---                                      ---
               AG WELLS  =    58978152.0000                 AG WELLS  =          22.4700
      DIVERSION SEGMENTS =           0.0000        DIVERSION SEGMENTS =           0.0000
           GW IRRIGATION =           0.0000             GW IRRIGATION =           0.0000
           SW IRRIGATION =           0.0000             SW IRRIGATION =           0.0000
        SYSTEM LOSSES GW =           0.0000          SYSTEM LOSSES GW =           0.0000
        SYSTEM LOSSES SW =           0.0000          SYSTEM LOSSES SW =           0.0000

                TOTAL IN =    58978152.0000                  TOTAL IN =          22.4700

          OUT:                                     OUT:
          ----                                     ----
               AG WELLS  =           0.0000                 AG WELLS  =           0.0000
      DIVERSION SEGMENTS =           0.0000        DIVERSION SEGMENTS =           0.0000
           GW IRRIGATION =    58978152.0000             GW IRRIGATION =          22.4700
           SW IRRIGATION =           0.0000             SW IRRIGATION =           0.0000
        SYSTEM LOSSES GW =           0.0000          SYSTEM LOSSES GW =           0.0000
        SYSTEM LOSSES SW =           0.0000          SYSTEM LOSSES SW =           0.0000

               TOTAL OUT =    58978152.0000                 TOTAL OUT =          22.4700

                IN - OUT =           0.0000                  IN - OUT =           0.0000

     PERCENT DISCREPANCY =           0.00         PERCENT DISCREPANCY =           0.00



1
  VOLUMETRIC BUDGET FOR ENTIRE MODEL AT END OF TIME STEP   15, STRESS PERIOD   7
  ------------------------------------------------------------------------------

     CUMULATIVE VOLUMES      L**3       RATES FOR THIS TIME STEP      L**3/T
     ------------------                 ------------------------

           IN:                                      IN:
           ---                                      ---
             STORAGE     =    65847676.0000               STORAGE     =          21.8828
       CONSTANT HEAD     =           0.0000         CONSTANT HEAD     =           0.0000
     HEAD DEP BOUNDS     =     4153689.5000       HEAD DEP BOUNDS     =           0.2855
      STREAM LEAKAGE     =   184455232.0000        STREAM LEAKAGE     =          13.5172
        UZF RECHARGE     =       73223.9531          UZF RECHARGE     =           0.0000
               GW ET     =           0.0000                 GW ET     =           0.0000
     SURFACE LEAKAGE     =           0.0000       SURFACE LEAKAGE     =           0.0000
           AG WELLS      =           0.0000             AG WELLS      =           0.0000

                TOTAL IN =   254529824.0000                  TOTAL IN =          35.6855

          OUT:                                     OUT:
          ----                                     ----
             STORAGE     =    39421732.0000               STORAGE     =           1.8823
       CONSTANT HEAD     =           0.0000         CONSTANT HEAD     =           0.0000
     HEAD DEP BOUNDS     =     4279811.5000       HEAD DEP BOUNDS     =           0.3000
      STREAM LEAKAGE     =   147660256.0000        STREAM LEAKAGE     =           9.6810
        UZF RECHARGE     =           0.0000          UZF RECHARGE     =           0.0000
               GW ET     =     4192415.0000                 GW ET     =           1.3524
     SURFACE LEAKAGE     =           0.0000       SURFACE LEAKAGE     =           0.0000
           AG WELLS      =    58978152.0000             AG WELLS      =          22.4700

               TOTAL OUT =   254532352.0000                 TOTAL OUT =          35.6856

                IN - OUT =       -2528.0000                  IN - OUT =      -6.8665E-05

     PERCENT DISCREPANCY =          -0.00         PERCENT DISCREPANCY =          -0.00






         TIME SUMMARY AT END OF TIME STEP   15 IN STRESS PERIOD    7
                    SECONDS     MINUTES      HOURS       DAYS        YEARS
                    -----------------------------------------------------------
   TIME STEP LENGTH  87667.      1461.1      24.352      1.0147     2.77799E-03
 STRESS PERIOD TIME 1.31500E+06  21917.      365.28      15.220     4.16698E-02
         TOTAL TIME 1.45514E+07 2.42524E+05  4042.1      168.42     0.46111    
1
 
 SOLVING FOR HEAD 
                                                   Max.-Head-Change                         Max.-Flux-Residual
  Residual-Control   Outer-Iter.   Inner-Iter.     Column Row Layer    Maximum-Head-Change  Column Row Layer    Maximum-Flux-Residual          L2-NORM 
          0                 1           2             4    7     1      -0.5598498886E-01       4    7    1        -0.2936787295E+01      0.6426120796E+01
          0                 2           2             4    7     1       0.5445755561E-02       4    7    1         0.2936749927E+00      0.6426030645E+00
          0                 3           2             4    7     1      -0.3708362810E-03       4    7    1        -0.2055729146E-01      0.4498197561E-01
          0                 4           1             4    7     1       0.1475592043E-04       4    7    1         0.8407942410E-03      0.1839750538E-02

    ------------------------------------------------
       NWT REQUIRED            4 OUTER ITERATIONS 
       AND A TOTAL OF          7 INNER ITERATIONS.
    ------------------------------------------------

 NO OUTPUT CONTROL FOR STRESS PERIOD    7   TIME STEP   16
 
 SOLVING FOR HEAD 
                                                   Max.-Head-Change                         Max.-Flux-Residual
  Residual-Control   Outer-Iter.   Inner-Iter.     Column Row Layer    Maximum-Head-Change  Column Row Layer    Maximum-Flux-Residual          L2-NORM 
          0                 1           2             4    7     1      -0.5544857445E-01       4    7    1        -0.2908947459E+01      0.6358654846E+01
          0                 2           2             4    7     1       0.5393577300E-02       4    7    1         0.2908910220E+00      0.6358577039E+00
          0                 3           2             4    7     1      -0.3672831331E-03       4    7    1        -0.2036241333E-01      0.4450987468E-01
          0                 4           1             4    7     1       0.1461453729E-04       4    7    1         0.8328237154E-03      0.1820437682E-02

    ------------------------------------------------
       NWT REQUIRED            4 OUTER ITERATIONS 
       AND A TOTAL OF          7 INNER ITERATIONS.
    ------------------------------------------------

 NO OUTPUT CONTROL FOR STRESS PERIOD    7   TIME STEP   17
 
 SOLVING FOR HEAD 
                                                   Max.-Head-Change                         Max.-Flux-Residual
  Residual-Control   Outer-Iter.   Inner-Iter.     Column Row Layer    Maximum-Head-Change  Column Row Layer    Maximum-Flux-Residual          L2-NORM 
          0                 1           2             4    7     1      -0.5491193736E-01       4    7    1        -0.2881060126E+01      0.6293333384E+01
          0                 2           2             4    7     1       0.5341377453E-02       4    7    1         0.2881023069E+00      0.6293261533E+00
          0                 3           2             4    7     1      -0.3637285138E-03       4    7    1        -0.2016720302E-01      0.4405272411E-01
          0                 4           1             4    7     1       0.1447309589E-04       4    7    1         0.8248395945E-03      0.1801742376E-02

    ------------------------------------------------
       NWT REQUIRED            4 OUTER ITERATIONS 
       AND A TOTAL OF          7 INNER ITERATIONS.
    ------------------------------------------------

 NO OUTPUT CONTROL FOR STRESS PERIOD    7   TIME STEP   18
 
 SOLVING FOR HEAD 
                                                   Max.-Head-Change                         Max.-Flux-Residual
  Residual-Control   Outer-Iter.   Inner-Iter.     Column Row Layer    Maximum-Head-Change  Column Row Layer    Maximum-Flux-Residual          L2-NORM 
          0                 1           2             4    7     1      -0.5437625387E-01       4    7    1        -0.2853190816E+01      0.6230047231E+01
          0                 2           2             4    7     1       0.5289270429E-02       4    7    1         0.2853153985E+00      0.6229981617E+00
          0                 3           2             4    7     1      -0.3601802148E-03       4    7    1        -0.1997211912E-01      0.4360979570E-01
          0                 4           1             4    7     1       0.1433190547E-04       4    7    1         0.8168606560E-03      0.1783634851E-02

    ------------------------------------------------
       NWT REQUIRED            4 OUTER ITERATIONS 
       AND A TOTAL OF          7 INNER ITERATIONS.
    ------------------------------------------------

 NO OUTPUT CONTROL FOR STRESS PERIOD    7   TIME STEP   19
 
 SOLVING FOR HEAD 
                                                   Max.-Head-Change                         Max.-Flux-Residual
  Residual-Control   Outer-Iter.   Inner-Iter.     Column Row Layer    Maximum-Head-Change  Column Row Layer    Maximum-Flux-Residual          L2-NORM 
          0                 1           2             4    7     1      -0.5384180592E-01       4    7    1        -0.2825356191E+01      0.6168677537E+01
          0                 2           2             4    7     1       0.5237283648E-02       4    7    1         0.2825319627E+00      0.6168616689E+00
          0                 3           2             4    7     1      -0.3566401034E-03       4    7    1        -0.1977727826E-01      0.4318029114E-01
          0                 4           1             4    7     1       0.1419104156E-04       4    7    1         0.8088916561E-03      0.1766083400E-02

    ------------------------------------------------
       NWT REQUIRED            4 OUTER ITERATIONS 
       AND A TOTAL OF          7 INNER ITERATIONS.
    ------------------------------------------------

 NO OUTPUT CONTROL FOR STRESS PERIOD    7   TIME STEP   20
 
 SOLVING FOR HEAD 
                                                   Max.-Head-Change                         Max.-Flux-Residual
  Residual-Control   Outer-Iter.   Inner-Iter.     Column Row Layer    Maximum-Head-Change  Column Row Layer    Maximum-Flux-Residual          L2-NORM 
          0                 1           2             4    7     1      -0.5330911851E-01       4    7    1        -0.2797585644E+01      0.6109124308E+01
          0                 2           2             4    7     1       0.5185468173E-02       4    7    1         0.2797549385E+00      0.6109067306E+00
          0                 3           2             4    7     1      -0.3531116571E-03       4    7    1        -0.1958288622E-01      0.4276345745E-01
          0                 4           1             4    7     1       0.1405064115E-04       4    7    1         0.8009410037E-03      0.1749005674E-02

    ------------------------------------------------
       NWT REQUIRED            4 OUTER ITERATIONS 
       AND A TOTAL OF          7 INNER ITERATIONS.
    ------------------------------------------------

 NO OUTPUT CONTROL FOR STRESS PERIOD    7   TIME STEP   21
 
 SOLVING FOR HEAD 
                                                   Max.-Head-Change                         Max.-Flux-Residual
  Residual-Control   Outer-Iter.   Inner-Iter.     Column Row Layer    Maximum-Head-Change  Column Row Layer    Maximum-Flux-Residual          L2-NORM 
          0                 1           2             4    7     1      -0.5277867374E-01       4    7    1        -0.2769906398E+01      0.6051292269E+01
          0                 2           2             4    7     1       0.5133870890E-02       4    7    1         0.2769870476E+00      0.6051238512E+00
          0                 3           2             4    7     1      -0.3495980682E-03       4    7    1        -0.1938913345E-01      0.4235867841E-01
          0                 4           1             4    7     1       0.1391083203E-04       4    7    1         0.7930165066E-03      0.1732473302E-02

    ------------------------------------------------
       NWT REQUIRED            4 OUTER ITERATIONS 
       AND A TOTAL OF          7 INNER ITERATIONS.
    ------------------------------------------------

 NO OUTPUT CONTROL FOR STRESS PERIOD    7   TIME STEP   22
 
 SOLVING FOR HEAD 
                                                   Max.-Head-Change                         Max.-Flux-Residual
  Residual-Control   Outer-Iter.   Inner-Iter.     Column Row Layer    Maximum-Head-Change  Column Row Layer    Maximum-Flux-Residual          L2-NORM 
          0                 1           2             4    7     1      -0.5225089954E-01       4    7    1        -0.2742343449E+01      0.5995092505E+01
          0                 2           2             4    7     1       0.5082533422E-02       4    7    1         0.2742307891E+00      0.5995041474E+00
          0                 3           2             4    7     1      -0.3461021713E-03       4    7    1        -0.1919619491E-01      0.4196530940E-01
          0                 4           1             4    7     1       0.1377172773E-04       4    7    1         0.7851253251E-03      0.1716380456E-02

    ------------------------------------------------
       NWT REQUIRED            4 OUTER ITERATIONS 
       AND A TOTAL OF          7 INNER ITERATIONS.
    ------------------------------------------------

 NO OUTPUT CONTROL FOR STRESS PERIOD    7   TIME STEP   23
 
 SOLVING FOR HEAD 
                                                   Max.-Head-Change                         Max.-Flux-Residual
  Residual-Control   Outer-Iter.   Inner-Iter.     Column Row Layer    Maximum-Head-Change  Column Row Layer    Maximum-Flux-Residual          L2-NORM 
          0                 1           2             4    7     1      -0.5172619094E-01       4    7    1        -0.2714918985E+01      0.5940456035E+01
          0                 2           2             4    7     1       0.5031494187E-02       4    7    1         0.2714883816E+00      0.5940404410E+00
          0                 3           2             4    7     1      -0.3426265829E-03       4    7    1        -0.1900422595E-01      0.4158285293E-01
          0                 4           1             4    7     1       0.1363343001E-04       4    7    1         0.7772737745E-03      0.1700737411E-02

    ------------------------------------------------
       NWT REQUIRED            4 OUTER ITERATIONS 
       AND A TOTAL OF          7 INNER ITERATIONS.
    ------------------------------------------------

 NO OUTPUT CONTROL FOR STRESS PERIOD    7   TIME STEP   24
 
 SOLVING FOR HEAD 
                                                   Max.-Head-Change                         Max.-Flux-Residual
  Residual-Control   Outer-Iter.   Inner-Iter.     Column Row Layer    Maximum-Head-Change  Column Row Layer    Maximum-Flux-Residual          L2-NORM 
          0                 1           2             4    7     1      -0.5120518064E-01       4    7    1        -0.2687668251E+01      0.5887311418E+01
          0                 2           2             4    7     1       0.4980814791E-02       4    7    1         0.2687633492E+00      0.5887265617E+00
          0                 3           2             4    7     1      -0.3391754939E-03       4    7    1        -0.1881347320E-01      0.4121087871E-01
          0                 4           1             4    7     1       0.1349610857E-04       4    7    1         0.7694719898E-03      0.1685522208E-02

    ------------------------------------------------
       NWT REQUIRED            4 OUTER ITERATIONS 
       AND A TOTAL OF          7 INNER ITERATIONS.
    ------------------------------------------------

 NO OUTPUT CONTROL FOR STRESS PERIOD    7   TIME STEP   25
 
 SOLVING FOR HEAD 
                                                   Max.-Head-Change                         Max.-Flux-Residual
  Residual-Control   Outer-Iter.   Inner-Iter.     Column Row Layer    Maximum-Head-Change  Column Row Layer    Maximum-Flux-Residual          L2-NORM 
          0                 1           2             4    7     1      -0.5068763312E-01       4    7    1        -0.2660579758E+01      0.5835579180E+01
          0                 2           2             4    7     1       0.4930472471E-02       4    7    1         0.2660545429E+00      0.5835538515E+00
          0                 3           2             4    7     1      -0.3357473625E-03       4    7    1        -0.1862385627E-01      0.4084879980E-01
          0                 4           1             4    7     1       0.1335969986E-04       4    7    1         0.7617166450E-03      0.1670717354E-02

    ------------------------------------------------
       NWT REQUIRED            4 OUTER ITERATIONS 
       AND A TOTAL OF          7 INNER ITERATIONS.
    ------------------------------------------------

 NO OUTPUT CONTROL FOR STRESS PERIOD    7   TIME STEP   26
 
 SOLVING FOR HEAD 
                                                   Max.-Head-Change                         Max.-Flux-Residual
  Residual-Control   Outer-Iter.   Inner-Iter.     Column Row Layer    Maximum-Head-Change  Column Row Layer    Maximum-Flux-Residual          L2-NORM 
          0                 1           2             4    7     1      -0.5017439770E-01       4    7    1        -0.2633700338E+01      0.5785208950E+01
          0                 2           2             4    7     1       0.4880556153E-02       4    7    1         0.2633666454E+00      0.5787263426E+00
          0                 3           2             4    7     1      -0.3323482397E-03       4    7    1        -0.1843570294E-01      0.4051087996E-01
          0                 4           1             4    7     1       0.1322444577E-04       4    7    1         0.7540211770E-03      0.1656899803E-02

    ------------------------------------------------
       NWT REQUIRED            4 OUTER ITERATIONS 
       AND A TOTAL OF          7 INNER ITERATIONS.
    ------------------------------------------------

 NO OUTPUT CONTROL FOR STRESS PERIOD    7   TIME STEP   27
 
 SOLVING FOR HEAD 
                                                   Max.-Head-Change                         Max.-Flux-Residual
  Residual-Control   Outer-Iter.   Inner-Iter.     Column Row Layer    Maximum-Head-Change  Column Row Layer    Maximum-Flux-Residual          L2-NORM 
          0                 1           2             4    7     1      -0.4966515727E-01       4    7    1        -0.2607014646E+01      0.5735960632E+01
          0                 2           2             4    7     1       0.4831014810E-02       4    7    1         0.2606981220E+00      0.5735924418E+00
          0                 3           2             4    7     1      -0.3289746512E-03       4    7    1        -0.1824890581E-01      0.4015150394E-01
          0                 4           1             4    7     1       0.1309020756E-04       4    7    1         0.7463811494E-03      0.1642200960E-02

    ------------------------------------------------
       NWT REQUIRED            4 OUTER ITERATIONS 
       AND A TOTAL OF          7 INNER ITERATIONS.
    ------------------------------------------------

 NO OUTPUT CONTROL FOR STRESS PERIOD    7   TIME STEP   28
 
 SOLVING FOR HEAD 
                                                   Max.-Head-Change                         Max.-Flux-Residual
  Residual-Control   Outer-Iter.   Inner-Iter.     Column Row Layer    Maximum-Head-Change  Column Row Layer    Maximum-Flux-Residual          L2-NORM 
          0                 1           2             4    7     1      -0.4916070778E-01       4    7    1        -0.2580566355E+01      0.5687896098E+01
          0                 2           2             4    7     1       0.4781946329E-02       4    7    1         0.2580533397E+00      0.5687860791E+00
          0                 3           2             4    7     1      -0.3256332624E-03       4    7    1        -0.1806377051E-01      0.3981506319E-01
          0                 4           1             4    7     1       0.1295725038E-04       4    7    1         0.7388091065E-03      0.1628437953E-02

    ------------------------------------------------
       NWT REQUIRED            4 OUTER ITERATIONS 
       AND A TOTAL OF          7 INNER ITERATIONS.
    ------------------------------------------------

 NO OUTPUT CONTROL FOR STRESS PERIOD    7   TIME STEP   29
 
 SOLVING FOR HEAD 
                                                   Max.-Head-Change                         Max.-Flux-Residual
  Residual-Control   Outer-Iter.   Inner-Iter.     Column Row Layer    Maximum-Head-Change  Column Row Layer    Maximum-Flux-Residual          L2-NORM 
          0                 1           2             4    7     1      -0.4866098873E-01       4    7    1        -0.2554351366E+01      0.5647169721E+01
          0                 2           2             4    7     1       0.4733338004E-02       4    7    1         0.2554318886E+00      0.5646859763E+00
          0                 3           2             4    7     1      -0.3223232090E-03       4    7    1        -0.1788026840E-01      0.3952554333E-01
          0                 4           1             4    7     1       0.1282554038E-04       4    7    1         0.7313038684E-03      0.1616442905E-02

    ------------------------------------------------
       NWT REQUIRED            4 OUTER ITERATIONS 
       AND A TOTAL OF          7 INNER ITERATIONS.
    ------------------------------------------------

 NO OUTPUT CONTROL FOR STRESS PERIOD    7   TIME STEP   30



 STREAM LISTING     PERIOD      7   STEP       30

 LAYER ROW COL. STREAM  RCH.  FLOW INTO     FLOW TO   FLOW OUT OF   OVRLND.     DIRECT     STREAM       STREAM     STREAM     STREAM   STREAMBED  STREAMBED
                SEG.NO.  NO.  STRM. RCH.    AQUIFER    STRM. RCH.    RUNOFF     PRECIP       ET          HEAD       DEPTH      WIDTH   CONDCTNC.   GRADIENT

   1    1    1     1     1    7.6939E+01  4.2690E-01   7.6512E+01  0.000E+00  0.000E+00  0.000E+00  1.09476E+03  1.708E+00  2.015E+01  9.068E-02  1.569E+00
   1    2    2     1     2    7.6512E+01  6.6216E-01   7.5850E+01  0.000E+00  0.000E+00  0.000E+00  1.08976E+03  1.705E+00  2.010E+01  1.407E-01  1.568E+00
   1    3    3     1     3    7.5850E+01  5.6572E-01   7.5284E+01  0.000E+00  0.000E+00  0.000E+00  1.08412E+03  1.703E+00  2.005E+01  1.203E-01  1.568E+00
   1    3    4     1     4    7.5284E+01  5.2177E-01   7.4762E+01  0.000E+00  0.000E+00  0.000E+00  1.07911E+03  1.700E+00  2.000E+01  1.110E-01  1.567E+00
   1    4    5     2     1    7.2762E+01  4.1250E-01   7.2350E+01  0.000E+00  0.000E+00  0.000E+00  1.07422E+03  2.288E+00  1.200E+01  7.800E-02  1.763E+00
   1    5    6     2     2    7.2350E+01  3.1689E-01   7.2033E+01  0.000E+00  0.000E+00  0.000E+00  1.06879E+03  2.282E+00  1.200E+01  6.000E-02  1.761E+00
   1    6    6     2     3    7.2033E+01  3.1653E-01   7.1717E+01  0.000E+00  0.000E+00  0.000E+00  1.06407E+03  2.276E+00  1.200E+01  6.000E-02  1.759E+00
   1    7    6     2     4    7.1717E+01  3.1617E-01   7.1400E+01  0.000E+00  0.000E+00  0.000E+00  1.05934E+03  2.270E+00  1.200E+01  6.000E-02  1.757E+00
   1    8    6     2     5    7.1400E+01  3.1581E-01   7.1085E+01  0.000E+00  0.000E+00  0.000E+00  1.05462E+03  2.264E+00  1.200E+01  6.000E-02  1.755E+00
   1    3    5     3     1    2.0000E+00  2.8252E-01   1.7175E+00  0.000E+00  0.000E+00  0.000E+00  1.07555E+03  1.909E+00  9.636E+00  7.227E-02  1.955E+00
   1    3    6     3     2    1.7175E+00  2.4905E-01   1.4684E+00  0.000E+00  0.000E+00  0.000E+00  1.07264E+03  1.727E+00  8.909E+00  6.682E-02  1.864E+00
   1    3    7     3     3    1.4684E+00  1.9718E-01   1.2712E+00  0.000E+00  0.000E+00  0.000E+00  1.06987E+03  1.555E+00  8.218E+00  5.547E-02  1.777E+00
   1    4    8     3     4    1.2712E+00  2.2567E-01   1.0456E+00  0.000E+00  0.000E+00  0.000E+00  1.06682E+03  1.364E+00  7.455E+00  6.709E-02  1.682E+00
   1    5    8     3     5    1.0456E+00  1.5790E-01   8.8768E-01  0.000E+00  0.000E+00  0.000E+00  1.06362E+03  1.164E+00  6.655E+00  4.991E-02  1.582E+00
   1    6    8     3     6    8.8768E-01  5.5980E-02   8.3170E-01  0.000E+00  0.000E+00  0.000E+00  1.06158E+03  1.036E+00  6.145E+00  1.844E-02  1.518E+00
   1    5   10     4     1    1.0000E+01  9.0919E-02   9.9091E+00  0.000E+00  0.000E+00  0.000E+00  1.07836E+03  6.368E-01  1.000E+01  2.500E-02  1.212E+00
   1    5    9     4     2    9.9091E+00  1.8158E-01   9.7275E+00  0.000E+00  0.000E+00  0.000E+00  1.07154E+03  6.315E-01  1.000E+01  5.000E-02  1.211E+00
   1    6    8     4     3    9.7275E+00  1.2689E-01   9.6006E+00  0.000E+00  0.000E+00  0.000E+00  1.06381E+03  6.256E-01  1.000E+01  3.500E-02  1.209E+00
   1    6    8     5     1    1.0432E+01  2.2686E-01   1.0205E+01  0.000E+00  0.000E+00  0.000E+00  1.05868E+03  6.790E-01  1.542E+01  6.166E-02  1.226E+00
   1    7    7     5     2    1.0205E+01  2.7894E-01   9.9265E+00  0.000E+00  0.000E+00  0.000E+00  1.05417E+03  6.732E-01  1.519E+01  7.594E-02  1.224E+00
   1    8    7     5     3    9.9265E+00  1.9221E-01   9.7343E+00  0.000E+00  0.000E+00  0.000E+00  1.04992E+03  6.676E-01  1.497E+01  5.241E-02  1.223E+00
   1    8    6     5     4    9.7343E+00  1.3577E-01   9.5985E+00  0.000E+00  0.000E+00  0.000E+00  1.04691E+03  6.637E-01  1.482E+01  3.706E-02  1.221E+00
   1    9    6     6     1    8.0683E+01  3.2780E-01   8.0355E+01  0.000E+00  0.000E+00  0.000E+00  1.04519E+03  2.463E+00  1.200E+01  6.000E-02  1.821E+00
   1   10    7     6     2    8.0355E+01  3.2743E-01   8.0028E+01  0.000E+00  0.000E+00  0.000E+00  1.04064E+03  2.457E+00  1.200E+01  6.000E-02  1.819E+00
   1   11    7     6     3    8.0028E+01  3.2707E-01   7.9701E+01  0.000E+00  0.000E+00  0.000E+00  1.03609E+03  2.451E+00  1.200E+01  6.000E-02  1.817E+00
   1   12    7     6     4    7.9701E+01  3.2671E-01   7.9374E+01  0.000E+00  0.000E+00  0.000E+00  1.03154E+03  2.445E+00  1.200E+01  6.000E-02  1.815E+00
   1   13    7     6     5    7.9374E+01  2.6851E-02   7.9347E+01  0.000E+00  0.000E+00  0.000E+00  1.02835E+03  2.442E+00  1.200E+01  2.400E-02  3.729E-01
   1   14    9     7     1    1.5000E+02  1.3318E+00   1.4867E+02  0.000E+00  0.000E+00  0.000E+00  1.03987E+03  2.288E+00  5.529E+01  5.593E-01  7.937E-01
   1   13    8     7     2    1.4867E+02  1.8024E+00   1.4687E+02  0.000E+00  0.000E+00  0.000E+00  1.03478E+03  2.279E+00  5.526E+01  6.148E-01  9.773E-01
   1   13    7     7     3    1.4687E+02  1.3727E+00   1.4549E+02  0.000E+00  0.000E+00  0.000E+00  1.02969E+03  2.271E+00  5.522E+01  5.585E-01  8.193E-01
   1   13    6     8     1    2.2484E+02  1.0256E+00   2.2381E+02  0.000E+00  0.000E+00  0.000E+00  1.02515E+03  3.276E+00  4.750E+01  4.840E-01  7.063E-01
   1   13    5     8     2    2.2381E+02  2.0293E-01   2.2361E+02  0.000E+00  0.000E+00  0.000E+00  1.01890E+03  3.272E+00  4.745E+01  4.835E-01  1.399E-01
   1   13    4     8     3    2.2361E+02 -2.0940E+00   2.2571E+02  0.000E+00  0.000E+00  0.000E+00  1.01265E+03  3.278E+00  4.752E+01  4.843E+00 -1.441E-01
   1   13    3     8     4    2.2571E+02 -3.2525E+00   2.2896E+02  0.000E+00  0.000E+00  0.000E+00  1.00642E+03  3.292E+00  4.774E+01  4.864E+00 -2.229E-01
   1   13    2     8     5    2.2896E+02 -2.6238E+00   2.3158E+02  0.000E+00  0.000E+00  0.000E+00  1.00018E+03  3.308E+00  4.797E+01  4.888E+00 -1.789E-01
   1   13    1     8     6    2.3158E+02 -2.0372E+00   2.3362E+02  0.000E+00  0.000E+00  0.000E+00  9.95196E+02  3.321E+00  4.815E+01  2.944E+00 -2.307E-01





UNSATURATED ZONE PACKAGE VOLUMETRIC BUDGET FOR  TIME STEP    30 STRESS PERIOD    7
  ------------------------------------------------------------------------------



     CUMULATIVE VOLUMES      L**3       RATES FOR THIS TIME STEP      L**3/T
     ------------------                 ------------------------

           IN:                                      IN:
           ---                                      ---
        INFILTRATION =   101972955.3490          INFILTRATION =          23.3175

          OUT:                                     OUT:
          ----                                     ----
              UZF ET =   101898762.8730                UZF ET =          23.3175
        UZF RECHARGE =       73224.0000          UZF RECHARGE =       0.0000E+00

            IN - OUT =         968.4760              IN - OUT =       2.8610E-06

          STORAGE:                                 STORAGE:
          --------                                 --------
      STORAGE CHANGE =         968.5679        STORAGE CHANGE =       2.1295E-06

 PERCENT DISCREPANCY IS DIFFERENCE BETWEEN IN-OUT MINUS CHANGE IN STORAGE
 DIVIDED BY THE AVERAGE OF IN AND OUT TIMES 100

 PERCENT DISCREPANCY =           0.00     PERCENT DISCREPANCY =           0.00






1
  VOLUMETRIC BUDGET FOR AGRICULTURAL FIELDS AT  END OF TIME STEP   30, STRESS PERIOD   7
  ------------------------------------------------------------------------------

     CUMULATIVE VOLUMES      L**3       RATES FOR THIS TIME STEP      L**3/T
     ------------------                 ------------------------

           IN:                                      IN:
           ---                                      ---
               AG WELLS  =    88526232.0000                 AG WELLS  =          22.4700
      DIVERSION SEGMENTS =           0.0000        DIVERSION SEGMENTS =           0.0000
           GW IRRIGATION =           0.0000             GW IRRIGATION =           0.0000
           SW IRRIGATION =           0.0000             SW IRRIGATION =           0.0000
        SYSTEM LOSSES GW =           0.0000          SYSTEM LOSSES GW =           0.0000
        SYSTEM LOSSES SW =           0.0000          SYSTEM LOSSES SW =           0.0000

                TOTAL IN =    88526232.0000                  TOTAL IN =          22.4700

          OUT:                                     OUT:
          ----                                     ----
               AG WELLS  =           0.0000                 AG WELLS  =           0.0000
      DIVERSION SEGMENTS =           0.0000        DIVERSION SEGMENTS =           0.0000
           GW IRRIGATION =    88526232.0000             GW IRRIGATION =          22.4700
           SW IRRIGATION =           0.0000             SW IRRIGATION =           0.0000
        SYSTEM LOSSES GW =           0.0000          SYSTEM LOSSES GW =           0.0000
        SYSTEM LOSSES SW =           0.0000          SYSTEM LOSSES SW =           0.0000

               TOTAL OUT =    88526232.0000                 TOTAL OUT =          22.4700

                IN - OUT =           0.0000                  IN - OUT =           0.0000

     PERCENT DISCREPANCY =           0.00         PERCENT DISCREPANCY =           0.00



1
  VOLUMETRIC BUDGET FOR ENTIRE MODEL AT END OF TIME STEP   30, STRESS PERIOD   7
  ------------------------------------------------------------------------------

     CUMULATIVE VOLUMES      L**3       RATES FOR THIS TIME STEP      L**3/T
     ------------------                 ------------------------

           IN:                                      IN:
           ---                                      ---
             STORAGE     =    94421856.0000               STORAGE     =          22.0169
       CONSTANT HEAD     =           0.0000         CONSTANT HEAD     =           0.0000
     HEAD DEP BOUNDS     =     4529104.5000       HEAD DEP BOUNDS     =           0.2855
      STREAM LEAKAGE     =   202204496.0000        STREAM LEAKAGE     =          13.3273
        UZF RECHARGE     =       73223.9531          UZF RECHARGE     =           0.0000
               GW ET     =           0.0000                 GW ET     =           0.0000
     SURFACE LEAKAGE     =           0.0000       SURFACE LEAKAGE     =           0.0000
           AG WELLS      =           0.0000             AG WELLS      =           0.0000

                TOTAL IN =   301228672.0000                  TOTAL IN =          35.6296

          OUT:                                     OUT:
          ----                                     ----
             STORAGE     =    41763048.0000               STORAGE     =           1.5739
       CONSTANT HEAD     =           0.0000         CONSTANT HEAD     =           0.0000
     HEAD DEP BOUNDS     =     4674104.5000       HEAD DEP BOUNDS     =           0.2997
      STREAM LEAKAGE     =   160347088.0000        STREAM LEAKAGE     =          10.0076
        UZF RECHARGE     =           0.0000          UZF RECHARGE     =           0.0000
               GW ET     =     5920915.5000                 GW ET     =           1.2785
     SURFACE LEAKAGE     =           0.0000       SURFACE LEAKAGE     =           0.0000
           AG WELLS      =    88526232.0000             AG WELLS      =          22.4700

               TOTAL OUT =   301231392.0000                 TOTAL OUT =          35.6297

                IN - OUT =       -2720.0000                  IN - OUT =      -6.8665E-05

     PERCENT DISCREPANCY =          -0.00         PERCENT DISCREPANCY =          -0.00






         TIME SUMMARY AT END OF TIME STEP   30 IN STRESS PERIOD    7
                    SECONDS     MINUTES      HOURS       DAYS        YEARS
                    -----------------------------------------------------------
   TIME STEP LENGTH  87667.      1461.1      24.352      1.0147     2.77799E-03
 STRESS PERIOD TIME 2.63000E+06  43833.      730.56      30.440     8.33397E-02
         TOTAL TIME 1.58664E+07 2.64440E+05  4407.3      183.64     0.50278    
1
1
                            STRESS PERIOD NO.    8, LENGTH =   2630000.    
                            -----------------------------------------------

                              NUMBER OF TIME STEPS =    30

                               MULTIPLIER FOR DELT =     1.000

                            INITIAL TIME STEP SIZE =   87666.66    

 REUSING NON-PARAMETER GHB CELLS FROM LAST STRESS PERIOD

      2 GHB CELLS

 REUSING STREAM SEGMENT DATA FROM LAST STRESS PERIOD



            AREAL INFILTRATION RATE
 READING ON UNIT   19 WITH FORMAT: (FREE)              

            1           2           3           4           5           6           7           8           9          10
 ........................................................................................................................
   1   1.0000E-10  2.0000E-10   0.000       0.000       0.000       0.000       0.000       0.000       0.000       0.000    
   2   2.0000E-10  1.0000E-10  2.0000E-10   0.000       0.000      8.0000E-10  8.0000E-10  5.0000E-10   0.000       0.000    
   3    0.000      5.0000E-10  1.0000E-10  1.0000E-10  8.0000E-10  8.0000E-10  5.0000E-10  5.0000E-10   0.000       0.000    
   4   8.0000E-10  5.0000E-10  1.0000E-10  1.0000E-10  1.0000E-10  1.0000E-10  1.0000E-10  1.0000E-10  2.0000E-10   0.000    
   5   8.0000E-10  5.0000E-10  1.0000E-10  1.0000E-10  1.0000E-10  1.0000E-10  1.0000E-10  1.0000E-10  1.0000E-10  1.0000E-10
   6   8.0000E-10  5.0000E-10  5.0000E-10  2.0000E-10  2.0000E-10  1.0000E-10  1.0000E-10  1.0000E-10  1.0000E-10  5.0000E-10
   7   8.0000E-10  5.0000E-10  5.0000E-10  2.0000E-10  2.0000E-10  1.0000E-10  1.0000E-10  2.0000E-10  2.0000E-10   0.000    
   8    0.000      5.0000E-10  5.0000E-10  2.0000E-10  2.0000E-10  1.0000E-10  1.0000E-10  2.0000E-10  5.0000E-10   0.000    
   9    0.000      5.0000E-10  5.0000E-10  2.0000E-10  2.0000E-10  1.0000E-10  1.0000E-10  2.0000E-10  5.0000E-10   0.000    
  10    0.000      5.0000E-10  5.0000E-10  2.0000E-10  2.0000E-10  1.0000E-10  1.0000E-10  2.0000E-10  5.0000E-10  8.0000E-10
  11    0.000      1.0000E-10  1.0000E-10  1.0000E-10  1.0000E-10  1.0000E-10  1.0000E-10  2.0000E-10  5.0000E-10   0.000    
  12   1.0000E-10  1.0000E-10  1.0000E-10  1.0000E-10  1.0000E-10  1.0000E-10  1.0000E-10  1.0000E-10  2.0000E-10   0.000    
  13   1.0000E-10  1.0000E-10  2.0000E-10  2.0000E-10  2.0000E-10  2.0000E-10  2.0000E-10  1.0000E-10  1.0000E-10   0.000    
  14    0.000      2.0000E-10  5.0000E-10  5.0000E-10  5.0000E-10  5.0000E-10  5.0000E-10  2.0000E-10  1.0000E-10   0.000    
  15    0.000       0.000      8.0000E-10  8.0000E-10  8.0000E-10  8.0000E-10   0.000       0.000       0.000       0.000    

                  ET RATE =  4.000000E-07

 USING ET EXTINCTION DEPTH FROM PREVIOUS STRESS PERIOD. CURRENT PERIOD IS:       8

 USING EXTINCTION WATER CONTENT FROM PREVIOUS STRESS PERIOD. CURRENT PERIOD IS:       8

 USING AIR ENTRY PRESSURE FROM PREVIOUS STRESS PERIOD. CURRENT PERIOD IS:       8

 USING ROOT PRESSURE HEAD FROM PREVIOUS STRESS PERIOD. CURRENT PERIOD IS:       8

 USING ROOT ACTIVITY FROM PREVIOUS STRESS PERIOD. CURRENT PERIOD IS:       8

 PROCESSING AG STRESS PERIOD DATA

 READING AG STRESS PERIOD DATA

 READING IRRIGATION WELL

 END PROCESSING AG STRESS PERIOD DATA OPTIONS
 
 SOLVING FOR HEAD 
                                                   Max.-Head-Change                         Max.-Flux-Residual
  Residual-Control   Outer-Iter.   Inner-Iter.     Column Row Layer    Maximum-Head-Change  Column Row Layer    Maximum-Flux-Residual          L2-NORM 
          0                 1           2             4    7     1      -0.1678712452E+00       4    7    1        -0.8778388802E+01      0.2061079042E+02
          0                 2           2             6    7     1       0.1560491576E-02       4   13    1         0.1203985291E+00      0.2946051211E+00
          0                 3           2             4    7     1      -0.1178678746E-01       4    7    1        -0.6504427827E+00      0.1585720996E+01
          0                 4           2             4    7     1      -0.9013939905E-02       5    8    1        -0.4975563509E+00      0.1218553960E+01
          0                 5           2             4    7     1       0.3587603114E-03       5    8    1         0.2035503673E-01      0.4985104659E-01
          0                 6           1             4    7     1      -0.4427056549E-05       5    8    1        -0.2581585265E-03      0.6322508106E-03

    ------------------------------------------------
       NWT REQUIRED            6 OUTER ITERATIONS 
       AND A TOTAL OF         11 INNER ITERATIONS.
    ------------------------------------------------

 OUTPUT CONTROL FOR STRESS PERIOD    8   TIME STEP    1
    PRINT BUDGET
    SAVE BUDGET
 UBDSV1 SAVING "         STORAGE" ON UNIT 102 AT TIME STEP  1, STRESS PERIOD   8
 UBDSV2 SAVING "   CONSTANT HEAD" ON UNIT 102 AT TIME STEP  1, STRESS PERIOD   8
 UBDSV1 SAVING "FLOW RIGHT FACE " ON UNIT 102 AT TIME STEP  1, STRESS PERIOD   8
 UBDSV1 SAVING "FLOW FRONT FACE " ON UNIT 102 AT TIME STEP  1, STRESS PERIOD   8

  HEAD DEP BOUNDS   PERIOD    8   STEP     1
 BOUNDARY      1   LAYER   1   ROW    13   COL     1   RATE   -0.299663    
 BOUNDARY      2   LAYER   1   ROW    14   COL     9   RATE    0.285485    



 STREAM LISTING     PERIOD      8   STEP        1

 LAYER ROW COL. STREAM  RCH.  FLOW INTO     FLOW TO   FLOW OUT OF   OVRLND.     DIRECT     STREAM       STREAM     STREAM     STREAM   STREAMBED  STREAMBED
                SEG.NO.  NO.  STRM. RCH.    AQUIFER    STRM. RCH.    RUNOFF     PRECIP       ET          HEAD       DEPTH      WIDTH   CONDCTNC.   GRADIENT

   1    1    1     1     1    7.5000E+01  4.2232E-01   7.4578E+01  0.000E+00  0.000E+00  0.000E+00  1.09475E+03  1.698E+00  1.998E+01  8.990E-02  1.566E+00
   1    2    2     1     2    7.4578E+01  6.5422E-01   7.3924E+01  0.000E+00  0.000E+00  0.000E+00  1.08975E+03  1.692E+00  1.992E+01  1.394E-01  1.564E+00
   1    3    3     1     3    7.3924E+01  5.5813E-01   7.3366E+01  0.000E+00  0.000E+00  0.000E+00  1.08410E+03  1.685E+00  1.985E+01  1.191E-01  1.562E+00
   1    3    4     1     4    7.3366E+01  5.1412E-01   7.2852E+01  0.000E+00  0.000E+00  0.000E+00  1.07909E+03  1.679E+00  1.980E+01  1.099E-01  1.560E+00
   1    4    5     2     1    7.0852E+01  4.0967E-01   7.0442E+01  0.000E+00  0.000E+00  0.000E+00  1.07419E+03  2.252E+00  1.200E+01  7.800E-02  1.751E+00
   1    5    6     2     2    7.0442E+01  3.1471E-01   7.0127E+01  0.000E+00  0.000E+00  0.000E+00  1.06875E+03  2.245E+00  1.200E+01  6.000E-02  1.748E+00
   1    6    6     2     3    7.0127E+01  3.1435E-01   6.9813E+01  0.000E+00  0.000E+00  0.000E+00  1.06403E+03  2.239E+00  1.200E+01  6.000E-02  1.746E+00
   1    7    6     2     4    6.9813E+01  3.1399E-01   6.9499E+01  0.000E+00  0.000E+00  0.000E+00  1.05931E+03  2.233E+00  1.200E+01  6.000E-02  1.744E+00
   1    8    6     2     5    6.9499E+01  3.1363E-01   6.9185E+01  0.000E+00  0.000E+00  0.000E+00  1.05459E+03  2.227E+00  1.200E+01  6.000E-02  1.742E+00
   1    3    5     3     1    2.0000E+00  2.8252E-01   1.7175E+00  0.000E+00  0.000E+00  0.000E+00  1.07555E+03  1.909E+00  9.636E+00  7.227E-02  1.955E+00
   1    3    6     3     2    1.7175E+00  2.4905E-01   1.4684E+00  0.000E+00  0.000E+00  0.000E+00  1.07264E+03  1.727E+00  8.909E+00  6.682E-02  1.864E+00
   1    3    7     3     3    1.4684E+00  1.9718E-01   1.2712E+00  0.000E+00  0.000E+00  0.000E+00  1.06987E+03  1.555E+00  8.218E+00  5.547E-02  1.777E+00
   1    4    8     3     4    1.2712E+00  2.2567E-01   1.0456E+00  0.000E+00  0.000E+00  0.000E+00  1.06682E+03  1.364E+00  7.455E+00  6.709E-02  1.682E+00
   1    5    8     3     5    1.0456E+00  1.5790E-01   8.8768E-01  0.000E+00  0.000E+00  0.000E+00  1.06362E+03  1.164E+00  6.655E+00  4.991E-02  1.582E+00
   1    6    8     3     6    8.8768E-01  5.5980E-02   8.3170E-01  0.000E+00  0.000E+00  0.000E+00  1.06158E+03  1.036E+00  6.145E+00  1.844E-02  1.518E+00
   1    5   10     4     1    1.0000E+01  9.0919E-02   9.9091E+00  0.000E+00  0.000E+00  0.000E+00  1.07836E+03  6.368E-01  1.000E+01  2.500E-02  1.212E+00
   1    5    9     4     2    9.9091E+00  1.8158E-01   9.7275E+00  0.000E+00  0.000E+00  0.000E+00  1.07154E+03  6.315E-01  1.000E+01  5.000E-02  1.211E+00
   1    6    8     4     3    9.7275E+00  1.2689E-01   9.6006E+00  0.000E+00  0.000E+00  0.000E+00  1.06381E+03  6.256E-01  1.000E+01  3.500E-02  1.209E+00
   1    6    8     5     1    1.0432E+01  2.2686E-01   1.0205E+01  0.000E+00  0.000E+00  0.000E+00  1.05868E+03  6.790E-01  1.542E+01  6.166E-02  1.226E+00
   1    7    7     5     2    1.0205E+01  2.7894E-01   9.9265E+00  0.000E+00  0.000E+00  0.000E+00  1.05417E+03  6.732E-01  1.519E+01  7.594E-02  1.224E+00
   1    8    7     5     3    9.9265E+00  1.9221E-01   9.7343E+00  0.000E+00  0.000E+00  0.000E+00  1.04992E+03  6.676E-01  1.497E+01  5.241E-02  1.223E+00
   1    8    6     5     4    9.7343E+00  1.3577E-01   9.5985E+00  0.000E+00  0.000E+00  0.000E+00  1.04691E+03  6.637E-01  1.482E+01  3.706E-02  1.221E+00
   1    9    6     6     1    7.8784E+01  3.2569E-01   7.8458E+01  0.000E+00  0.000E+00  0.000E+00  1.04516E+03  2.428E+00  1.200E+01  6.000E-02  1.809E+00
   1   10    7     6     2    7.8458E+01  3.2533E-01   7.8133E+01  0.000E+00  0.000E+00  0.000E+00  1.04060E+03  2.422E+00  1.200E+01  6.000E-02  1.807E+00
   1   11    7     6     3    7.8133E+01  3.2497E-01   7.7808E+01  0.000E+00  0.000E+00  0.000E+00  1.03605E+03  2.416E+00  1.200E+01  6.000E-02  1.805E+00
   1   12    7     6     4    7.7808E+01  3.2461E-01   7.7483E+01  0.000E+00  0.000E+00  0.000E+00  1.03150E+03  2.410E+00  1.200E+01  6.000E-02  1.803E+00
   1   13    7     6     5    7.7483E+01  2.5997E-02   7.7457E+01  0.000E+00  0.000E+00  0.000E+00  1.02832E+03  2.407E+00  1.200E+01  2.400E-02  3.611E-01
   1   14    9     7     1    1.5000E+02  1.3318E+00   1.4867E+02  0.000E+00  0.000E+00  0.000E+00  1.03987E+03  2.288E+00  5.529E+01  5.593E-01  7.937E-01
   1   13    8     7     2    1.4867E+02  1.8022E+00   1.4687E+02  0.000E+00  0.000E+00  0.000E+00  1.03478E+03  2.279E+00  5.526E+01  6.148E-01  9.772E-01
   1   13    7     7     3    1.4687E+02  1.3725E+00   1.4549E+02  0.000E+00  0.000E+00  0.000E+00  1.02969E+03  2.271E+00  5.522E+01  5.585E-01  8.192E-01
   1   13    6     8     1    2.2295E+02  1.0174E+00   2.2193E+02  0.000E+00  0.000E+00  0.000E+00  1.02514E+03  3.265E+00  4.735E+01  4.825E-01  7.028E-01
   1   13    5     8     2    2.2193E+02  1.9745E-01   2.2174E+02  0.000E+00  0.000E+00  0.000E+00  1.01889E+03  3.262E+00  4.730E+01  4.820E-01  1.366E-01
   1   13    4     8     3    2.2174E+02 -2.0673E+00   2.2380E+02  0.000E+00  0.000E+00  0.000E+00  1.01264E+03  3.267E+00  4.737E+01  4.828E+00 -1.427E-01
   1   13    3     8     4    2.2380E+02 -3.2221E+00   2.2703E+02  0.000E+00  0.000E+00  0.000E+00  1.00641E+03  3.282E+00  4.758E+01  4.849E+00 -2.215E-01
   1   13    2     8     5    2.2703E+02 -2.6521E+00   2.2968E+02  0.000E+00  0.000E+00  0.000E+00  1.00017E+03  3.298E+00  4.782E+01  4.873E+00 -1.814E-01
   1   13    1     8     6    2.2968E+02 -2.0559E+00   2.3173E+02  0.000E+00  0.000E+00  0.000E+00  9.95185E+02  3.310E+00  4.800E+01  2.935E+00 -2.335E-01



 UBDSV3 SAVING "           GW ET" ON UNIT  61 AT TIME STEP  1, STRESS PERIOD   8
 UBDSV3 SAVING "    UZF RECHARGE" ON UNIT  61 AT TIME STEP  1, STRESS PERIOD   8
 UBDSV3 SAVING " SURFACE LEAKAGE" ON UNIT  61 AT TIME STEP  1, STRESS PERIOD   8
 UBDSV3 SAVING "       HORT+DUNN" ON UNIT  61 AT TIME STEP  1, STRESS PERIOD   8
 UBDSV3 SAVING "  STORAGE CHANGE" ON UNIT  61 AT TIME STEP  1, STRESS PERIOD   8


UNSATURATED ZONE PACKAGE VOLUMETRIC BUDGET FOR  TIME STEP     1 STRESS PERIOD    8
  ------------------------------------------------------------------------------



     CUMULATIVE VOLUMES      L**3       RATES FOR THIS TIME STEP      L**3/T
     ------------------                 ------------------------

           IN:                                      IN:
           ---                                      ---
        INFILTRATION =   108343056.8449          INFILTRATION =          72.6628

          OUT:                                     OUT:
          ----                                     ----
              UZF ET =   107004647.1189                UZF ET =          58.2420
        UZF RECHARGE =       73224.0000          UZF RECHARGE =       0.0000E+00

            IN - OUT =     1265185.7260              IN - OUT =          14.4207

          STORAGE:                                 STORAGE:
          --------                                 --------
      STORAGE CHANGE =     1265185.8800        STORAGE CHANGE =          14.4207

 PERCENT DISCREPANCY IS DIFFERENCE BETWEEN IN-OUT MINUS CHANGE IN STORAGE
 DIVIDED BY THE AVERAGE OF IN AND OUT TIMES 100

 PERCENT DISCREPANCY =           0.00     PERCENT DISCREPANCY =           0.00






 

            AG WELLS      PERIOD    8   STEP   1
 AG WELL      1   LAYER   1   ROW     6   COL     4   RATE    -11.9692    
 AG WELL      2   LAYER   1   ROW     6   COL     5   RATE    -11.9692    
 AG WELL      3   LAYER   1   ROW     7   COL     4   RATE    -11.9692    
 AG WELL      4   LAYER   1   ROW     7   COL     5   RATE    -11.9692    
 AG WELL      5   LAYER   1   ROW     8   COL     4   RATE    -11.9692    
 AG WELL      6   LAYER   1   ROW     8   COL     5   RATE    -11.9692    
 
 

        GW IRRIGATION     PERIOD    8   STEP   1
 AG WELL      1   ROW     6   COL     4   RATE     11.9692    
 AG WELL      2   ROW     6   COL     5   RATE     11.9692    
 AG WELL      3   ROW     7   COL     4   RATE     11.9692    
 AG WELL      4   ROW     7   COL     5   RATE     11.9692    
 AG WELL      5   ROW     8   COL     4   RATE     11.9692    
 AG WELL      6   ROW     8   COL     5   RATE     11.9692    
 
1
  VOLUMETRIC BUDGET FOR AGRICULTURAL FIELDS AT  END OF TIME STEP    1, STRESS PERIOD   8
  ------------------------------------------------------------------------------

     CUMULATIVE VOLUMES      L**3       RATES FOR THIS TIME STEP      L**3/T
     ------------------                 ------------------------

           IN:                                      IN:
           ---                                      ---
               AG WELLS  =    94822040.0000                 AG WELLS  =          71.8153
      DIVERSION SEGMENTS =           0.0000        DIVERSION SEGMENTS =           0.0000
           GW IRRIGATION =           0.0000             GW IRRIGATION =           0.0000
           SW IRRIGATION =           0.0000             SW IRRIGATION =           0.0000
        SYSTEM LOSSES GW =           0.0000          SYSTEM LOSSES GW =           0.0000
        SYSTEM LOSSES SW =           0.0000          SYSTEM LOSSES SW =           0.0000

                TOTAL IN =    94822040.0000                  TOTAL IN =          71.8153

          OUT:                                     OUT:
          ----                                     ----
               AG WELLS  =           0.0000                 AG WELLS  =           0.0000
      DIVERSION SEGMENTS =           0.0000        DIVERSION SEGMENTS =           0.0000
           GW IRRIGATION =    94822040.0000             GW IRRIGATION =          71.8153
           SW IRRIGATION =           0.0000             SW IRRIGATION =           0.0000
        SYSTEM LOSSES GW =           0.0000          SYSTEM LOSSES GW =           0.0000
        SYSTEM LOSSES SW =           0.0000          SYSTEM LOSSES SW =           0.0000

               TOTAL OUT =    94822040.0000                 TOTAL OUT =          71.8153

                IN - OUT =           0.0000                  IN - OUT =           0.0000

     PERCENT DISCREPANCY =           0.00         PERCENT DISCREPANCY =           0.00



1
  VOLUMETRIC BUDGET FOR ENTIRE MODEL AT END OF TIME STEP    1, STRESS PERIOD   8
  ------------------------------------------------------------------------------

     CUMULATIVE VOLUMES      L**3       RATES FOR THIS TIME STEP      L**3/T
     ------------------                 ------------------------

           IN:                                      IN:
           ---                                      ---
             STORAGE     =   100812448.0000               STORAGE     =          72.8965
       CONSTANT HEAD     =           0.0000         CONSTANT HEAD     =           0.0000
     HEAD DEP BOUNDS     =     4554132.0000       HEAD DEP BOUNDS     =           0.2855
      STREAM LEAKAGE     =   203367344.0000        STREAM LEAKAGE     =          13.2645
        UZF RECHARGE     =       73223.9531          UZF RECHARGE     =           0.0000
               GW ET     =           0.0000                 GW ET     =           0.0000
     SURFACE LEAKAGE     =           0.0000       SURFACE LEAKAGE     =           0.0000
           AG WELLS      =           0.0000             AG WELLS      =           0.0000

                TOTAL IN =   308807136.0000                  TOTAL IN =          86.4465

          OUT:                                     OUT:
          ----                                     ----
             STORAGE     =    41894932.0000               STORAGE     =           1.5044
       CONSTANT HEAD     =           0.0000         CONSTANT HEAD     =           0.0000
     HEAD DEP BOUNDS     =     4700375.0000       HEAD DEP BOUNDS     =           0.2997
      STREAM LEAKAGE     =   161223520.0000        STREAM LEAKAGE     =           9.9973
        UZF RECHARGE     =           0.0000          UZF RECHARGE     =           0.0000
               GW ET     =     6169000.0000                 GW ET     =           2.8299
     SURFACE LEAKAGE     =           0.0000       SURFACE LEAKAGE     =           0.0000
           AG WELLS      =    94822040.0000             AG WELLS      =          71.8153

               TOTAL OUT =   308809888.0000                 TOTAL OUT =          86.4465

                IN - OUT =       -2752.0000                  IN - OUT =      -2.2888E-05

     PERCENT DISCREPANCY =          -0.00         PERCENT DISCREPANCY =          -0.00






         TIME SUMMARY AT END OF TIME STEP    1 IN STRESS PERIOD    8
                    SECONDS     MINUTES      HOURS       DAYS        YEARS
                    -----------------------------------------------------------
   TIME STEP LENGTH  87667.      1461.1      24.352      1.0147     2.77799E-03
 STRESS PERIOD TIME  87667.      1461.1      24.352      1.0147     2.77799E-03
         TOTAL TIME 1.59541E+07 2.65901E+05  4431.7      184.65     0.50555    
1
 
 SOLVING FOR HEAD 
                                                   Max.-Head-Change                         Max.-Flux-Residual
  Residual-Control   Outer-Iter.   Inner-Iter.     Column Row Layer    Maximum-Head-Change  Column Row Layer    Maximum-Flux-Residual          L2-NORM 
          0                 1           2             4    7     1      -0.1665464160E+00       4    7    1        -0.8712916796E+01      0.2018280102E+02
          0                 2           2             6    7     1       0.1781286834E-02       6    7    1         0.9767276144E-01      0.2909790826E+00
          0                 3           2             5    6     1      -0.1202332516E-01       4    7    1        -0.6499843750E+00      0.1582104741E+01
          0                 4           2             4    7     1      -0.9014320438E-02       5    7    1        -0.4987212963E+00      0.1188530272E+01
          0                 5           2             5    6     1       0.8359334042E-03       5    6    1         0.4681211468E-01      0.7728577529E-01
          0                 6           1             5    6     1      -0.5692400541E-04       5    6    1        -0.3315453443E-02      0.4707686277E-02

    ------------------------------------------------
       NWT REQUIRED            6 OUTER ITERATIONS 
       AND A TOTAL OF         11 INNER ITERATIONS.
    ------------------------------------------------

 NO OUTPUT CONTROL FOR STRESS PERIOD    8   TIME STEP    2
 
 SOLVING FOR HEAD 
                                                   Max.-Head-Change                         Max.-Flux-Residual
  Residual-Control   Outer-Iter.   Inner-Iter.     Column Row Layer    Maximum-Head-Change  Column Row Layer    Maximum-Flux-Residual          L2-NORM 
          0                 1           2             4    7     1      -0.1651629497E+00       4    7    1        -0.8644073836E+01      0.1979440961E+02
          0                 2           2             6    7     1       0.1991907892E-02       6    7    1         0.1094663390E+00      0.3094341399E+00
          0                 3           2             4    6     1      -0.1217866871E-01       4    7    1        -0.6495044622E+00      0.1578531170E+01
          0                 4           2             4    7     1      -0.9014718042E-02       5    7    1        -0.4987565916E+00      0.1173336597E+01
          0                 5           2             4    6     1       0.8440541490E-03       5    8    1         0.4682136689E-01      0.8759517451E-01
          0                 6           1             4    6     1      -0.5747698801E-04       5    8    1        -0.3315306047E-02      0.5695307736E-02

    ------------------------------------------------
       NWT REQUIRED            6 OUTER ITERATIONS 
       AND A TOTAL OF         11 INNER ITERATIONS.
    ------------------------------------------------

 NO OUTPUT CONTROL FOR STRESS PERIOD    8   TIME STEP    3
 
 SOLVING FOR HEAD 
                                                   Max.-Head-Change                         Max.-Flux-Residual
  Residual-Control   Outer-Iter.   Inner-Iter.     Column Row Layer    Maximum-Head-Change  Column Row Layer    Maximum-Flux-Residual          L2-NORM 
          0                 1           2             4    7     1      -0.1637267573E+00       4    7    1        -0.8572185533E+01      0.1943408033E+02
          0                 2           2             6    7     1       0.2192624118E-02       6    7    1         0.1207160477E+00      0.3391620841E+00
          0                 3           2             5    7     1      -0.1221865554E-01       4    7    1        -0.6490160336E+00      0.1574749723E+01
          0                 4           2             4    7     1      -0.9015130982E-02       4    7    1        -0.4991358332E+00      0.1142127025E+01
          0                 5           2             5    7     1       0.8472864726E-03       5    7    1         0.4637507382E-01      0.1051240175E+00
          0                 6           1             5    7     1      -0.5769716516E-04       5    7    1        -0.3265731878E-02      0.7261614038E-02

    ------------------------------------------------
       NWT REQUIRED            6 OUTER ITERATIONS 
       AND A TOTAL OF         11 INNER ITERATIONS.
    ------------------------------------------------

 NO OUTPUT CONTROL FOR STRESS PERIOD    8   TIME STEP    4
 
 SOLVING FOR HEAD 
                                                   Max.-Head-Change                         Max.-Flux-Residual
  Residual-Control   Outer-Iter.   Inner-Iter.     Column Row Layer    Maximum-Head-Change  Column Row Layer    Maximum-Flux-Residual          L2-NORM 
          0                 1           2             4    7     1      -0.1622435347E+00       4    7    1        -0.8497565956E+01      0.1909562585E+02
          0                 2           2             6    7     1       0.2383721401E-02       6    7    1         0.1314364481E+00      0.3739764252E+00
          0                 3           2             5    7     1      -0.1219216823E-01       4    7    1        -0.6485137608E+00      0.1570957650E+01
          0                 4           2             4    7     1      -0.9015558158E-02       4    7    1        -0.4991517746E+00      0.1142490041E+01
          0                 5           2             5    7     1       0.8475463734E-03       5    7    1         0.4638890547E-01      0.1051627857E+00
          0                 6           1             5    7     1      -0.5771486347E-04       5    7    1        -0.3266693170E-02      0.7264350281E-02

    ------------------------------------------------
       NWT REQUIRED            6 OUTER ITERATIONS 
       AND A TOTAL OF         11 INNER ITERATIONS.
    ------------------------------------------------

 OUTPUT CONTROL FOR STRESS PERIOD    8   TIME STEP    5
    PRINT BUDGET
    SAVE BUDGET
 UBDSV1 SAVING "         STORAGE" ON UNIT 102 AT TIME STEP  5, STRESS PERIOD   8
 UBDSV2 SAVING "   CONSTANT HEAD" ON UNIT 102 AT TIME STEP  5, STRESS PERIOD   8
 UBDSV1 SAVING "FLOW RIGHT FACE " ON UNIT 102 AT TIME STEP  5, STRESS PERIOD   8
 UBDSV1 SAVING "FLOW FRONT FACE " ON UNIT 102 AT TIME STEP  5, STRESS PERIOD   8

  HEAD DEP BOUNDS   PERIOD    8   STEP     5
 BOUNDARY      1   LAYER   1   ROW    13   COL     1   RATE   -0.299426    
 BOUNDARY      2   LAYER   1   ROW    14   COL     9   RATE    0.285483    



 STREAM LISTING     PERIOD      8   STEP        5

 LAYER ROW COL. STREAM  RCH.  FLOW INTO     FLOW TO   FLOW OUT OF   OVRLND.     DIRECT     STREAM       STREAM     STREAM     STREAM   STREAMBED  STREAMBED
                SEG.NO.  NO.  STRM. RCH.    AQUIFER    STRM. RCH.    RUNOFF     PRECIP       ET          HEAD       DEPTH      WIDTH   CONDCTNC.   GRADIENT

   1    1    1     1     1    7.5000E+01  4.2232E-01   7.4578E+01  0.000E+00  0.000E+00  0.000E+00  1.09475E+03  1.698E+00  1.998E+01  8.990E-02  1.566E+00
   1    2    2     1     2    7.4578E+01  6.5422E-01   7.3924E+01  0.000E+00  0.000E+00  0.000E+00  1.08975E+03  1.692E+00  1.992E+01  1.394E-01  1.564E+00
   1    3    3     1     3    7.3924E+01  5.5813E-01   7.3366E+01  0.000E+00  0.000E+00  0.000E+00  1.08410E+03  1.685E+00  1.985E+01  1.191E-01  1.562E+00
   1    3    4     1     4    7.3366E+01  5.1412E-01   7.2852E+01  0.000E+00  0.000E+00  0.000E+00  1.07909E+03  1.679E+00  1.980E+01  1.099E-01  1.560E+00
   1    4    5     2     1    7.0852E+01  4.0967E-01   7.0442E+01  0.000E+00  0.000E+00  0.000E+00  1.07419E+03  2.252E+00  1.200E+01  7.800E-02  1.751E+00
   1    5    6     2     2    7.0442E+01  3.1471E-01   7.0127E+01  0.000E+00  0.000E+00  0.000E+00  1.06875E+03  2.245E+00  1.200E+01  6.000E-02  1.748E+00
   1    6    6     2     3    7.0127E+01  3.1435E-01   6.9813E+01  0.000E+00  0.000E+00  0.000E+00  1.06403E+03  2.239E+00  1.200E+01  6.000E-02  1.746E+00
   1    7    6     2     4    6.9813E+01  3.1399E-01   6.9499E+01  0.000E+00  0.000E+00  0.000E+00  1.05931E+03  2.233E+00  1.200E+01  6.000E-02  1.744E+00
   1    8    6     2     5    6.9499E+01  3.1363E-01   6.9185E+01  0.000E+00  0.000E+00  0.000E+00  1.05459E+03  2.227E+00  1.200E+01  6.000E-02  1.742E+00
   1    3    5     3     1    2.0000E+00  2.8252E-01   1.7175E+00  0.000E+00  0.000E+00  0.000E+00  1.07555E+03  1.909E+00  9.636E+00  7.227E-02  1.955E+00
   1    3    6     3     2    1.7175E+00  2.4905E-01   1.4684E+00  0.000E+00  0.000E+00  0.000E+00  1.07264E+03  1.727E+00  8.909E+00  6.682E-02  1.864E+00
   1    3    7     3     3    1.4684E+00  1.9718E-01   1.2712E+00  0.000E+00  0.000E+00  0.000E+00  1.06987E+03  1.555E+00  8.218E+00  5.547E-02  1.777E+00
   1    4    8     3     4    1.2712E+00  2.2567E-01   1.0456E+00  0.000E+00  0.000E+00  0.000E+00  1.06682E+03  1.364E+00  7.455E+00  6.709E-02  1.682E+00
   1    5    8     3     5    1.0456E+00  1.5790E-01   8.8768E-01  0.000E+00  0.000E+00  0.000E+00  1.06362E+03  1.164E+00  6.655E+00  4.991E-02  1.582E+00
   1    6    8     3     6    8.8768E-01  5.5980E-02   8.3170E-01  0.000E+00  0.000E+00  0.000E+00  1.06158E+03  1.036E+00  6.145E+00  1.844E-02  1.518E+00
   1    5   10     4     1    1.0000E+01  9.0919E-02   9.9091E+00  0.000E+00  0.000E+00  0.000E+00  1.07836E+03  6.368E-01  1.000E+01  2.500E-02  1.212E+00
   1    5    9     4     2    9.9091E+00  1.8158E-01   9.7275E+00  0.000E+00  0.000E+00  0.000E+00  1.07154E+03  6.315E-01  1.000E+01  5.000E-02  1.211E+00
   1    6    8     4     3    9.7275E+00  1.2689E-01   9.6006E+00  0.000E+00  0.000E+00  0.000E+00  1.06381E+03  6.256E-01  1.000E+01  3.500E-02  1.209E+00
   1    6    8     5     1    1.0432E+01  2.2686E-01   1.0205E+01  0.000E+00  0.000E+00  0.000E+00  1.05868E+03  6.790E-01  1.542E+01  6.166E-02  1.226E+00
   1    7    7     5     2    1.0205E+01  2.7894E-01   9.9265E+00  0.000E+00  0.000E+00  0.000E+00  1.05417E+03  6.732E-01  1.519E+01  7.594E-02  1.224E+00
   1    8    7     5     3    9.9265E+00  1.9221E-01   9.7343E+00  0.000E+00  0.000E+00  0.000E+00  1.04992E+03  6.676E-01  1.497E+01  5.241E-02  1.223E+00
   1    8    6     5     4    9.7343E+00  1.3577E-01   9.5985E+00  0.000E+00  0.000E+00  0.000E+00  1.04691E+03  6.637E-01  1.482E+01  3.706E-02  1.221E+00
   1    9    6     6     1    7.8784E+01  3.2569E-01   7.8458E+01  0.000E+00  0.000E+00  0.000E+00  1.04516E+03  2.428E+00  1.200E+01  6.000E-02  1.809E+00
   1   10    7     6     2    7.8458E+01  3.2533E-01   7.8133E+01  0.000E+00  0.000E+00  0.000E+00  1.04060E+03  2.422E+00  1.200E+01  6.000E-02  1.807E+00
   1   11    7     6     3    7.8133E+01  3.2497E-01   7.7808E+01  0.000E+00  0.000E+00  0.000E+00  1.03605E+03  2.416E+00  1.200E+01  6.000E-02  1.805E+00
   1   12    7     6     4    7.7808E+01  3.2461E-01   7.7483E+01  0.000E+00  0.000E+00  0.000E+00  1.03150E+03  2.410E+00  1.200E+01  6.000E-02  1.803E+00
   1   13    7     6     5    7.7483E+01  2.5951E-02   7.7457E+01  0.000E+00  0.000E+00  0.000E+00  1.02832E+03  2.407E+00  1.200E+01  2.400E-02  3.604E-01
   1   14    9     7     1    1.5000E+02  1.3318E+00   1.4867E+02  0.000E+00  0.000E+00  0.000E+00  1.03987E+03  2.288E+00  5.529E+01  5.593E-01  7.937E-01
   1   13    8     7     2    1.4867E+02  1.8017E+00   1.4687E+02  0.000E+00  0.000E+00  0.000E+00  1.03478E+03  2.279E+00  5.526E+01  6.148E-01  9.769E-01
   1   13    7     7     3    1.4687E+02  1.3714E+00   1.4550E+02  0.000E+00  0.000E+00  0.000E+00  1.02969E+03  2.271E+00  5.522E+01  5.585E-01  8.185E-01
   1   13    6     8     1    2.2295E+02  1.0172E+00   2.2194E+02  0.000E+00  0.000E+00  0.000E+00  1.02514E+03  3.265E+00  4.735E+01  4.825E-01  7.028E-01
   1   13    5     8     2    2.2194E+02  1.9833E-01   2.2174E+02  0.000E+00  0.000E+00  0.000E+00  1.01889E+03  3.262E+00  4.730E+01  4.820E-01  1.372E-01
   1   13    4     8     3    2.2174E+02 -1.9497E+00   2.2369E+02  0.000E+00  0.000E+00  0.000E+00  1.01264E+03  3.267E+00  4.737E+01  4.827E+00 -1.346E-01
   1   13    3     8     4    2.2369E+02 -3.1042E+00   2.2679E+02  0.000E+00  0.000E+00  0.000E+00  1.00641E+03  3.281E+00  4.757E+01  4.848E+00 -2.135E-01
   1   13    2     8     5    2.2679E+02 -2.6097E+00   2.2940E+02  0.000E+00  0.000E+00  0.000E+00  1.00017E+03  3.296E+00  4.780E+01  4.871E+00 -1.786E-01
   1   13    1     8     6    2.2940E+02 -2.0412E+00   2.3144E+02  0.000E+00  0.000E+00  0.000E+00  9.95184E+02  3.309E+00  4.798E+01  2.933E+00 -2.319E-01



 UBDSV3 SAVING "           GW ET" ON UNIT  61 AT TIME STEP  5, STRESS PERIOD   8
 UBDSV3 SAVING "    UZF RECHARGE" ON UNIT  61 AT TIME STEP  5, STRESS PERIOD   8
 UBDSV3 SAVING " SURFACE LEAKAGE" ON UNIT  61 AT TIME STEP  5, STRESS PERIOD   8
 UBDSV3 SAVING "       HORT+DUNN" ON UNIT  61 AT TIME STEP  5, STRESS PERIOD   8
 UBDSV3 SAVING "  STORAGE CHANGE" ON UNIT  61 AT TIME STEP  5, STRESS PERIOD   8


UNSATURATED ZONE PACKAGE VOLUMETRIC BUDGET FOR  TIME STEP     5 STRESS PERIOD    8
  ------------------------------------------------------------------------------



     CUMULATIVE VOLUMES      L**3       RATES FOR THIS TIME STEP      L**3/T
     ------------------                 ------------------------

           IN:                                      IN:
           ---                                      ---
        INFILTRATION =   133823462.8284          INFILTRATION =          72.6628

          OUT:                                     OUT:
          ----                                     ----
              UZF ET =   127428184.1024                UZF ET =          58.2420
        UZF RECHARGE =       73224.0000          UZF RECHARGE =       0.0000E+00

            IN - OUT =     6322054.7260              IN - OUT =          14.4207

          STORAGE:                                 STORAGE:
          --------                                 --------
      STORAGE CHANGE =     6322055.1285        STORAGE CHANGE =          14.4207

 PERCENT DISCREPANCY IS DIFFERENCE BETWEEN IN-OUT MINUS CHANGE IN STORAGE
 DIVIDED BY THE AVERAGE OF IN AND OUT TIMES 100

 PERCENT DISCREPANCY =           0.00     PERCENT DISCREPANCY =           0.00






 

            AG WELLS      PERIOD    8   STEP   5
 AG WELL      1   LAYER   1   ROW     6   COL     4   RATE    -11.9692    
 AG WELL      2   LAYER   1   ROW     6   COL     5   RATE    -11.9692    
 AG WELL      3   LAYER   1   ROW     7   COL     4   RATE    -11.9692    
 AG WELL      4   LAYER   1   ROW     7   COL     5   RATE    -11.9692    
 AG WELL      5   LAYER   1   ROW     8   COL     4   RATE    -11.9692    
 AG WELL      6   LAYER   1   ROW     8   COL     5   RATE    -11.9692    
 
 

        GW IRRIGATION     PERIOD    8   STEP   5
 AG WELL      1   ROW     6   COL     4   RATE     11.9692    
 AG WELL      2   ROW     6   COL     5   RATE     11.9692    
 AG WELL      3   ROW     7   COL     4   RATE     11.9692    
 AG WELL      4   ROW     7   COL     5   RATE     11.9692    
 AG WELL      5   ROW     8   COL     4   RATE     11.9692    
 AG WELL      6   ROW     8   COL     5   RATE     11.9692    
 
1
  VOLUMETRIC BUDGET FOR AGRICULTURAL FIELDS AT  END OF TIME STEP    5, STRESS PERIOD   8
  ------------------------------------------------------------------------------

     CUMULATIVE VOLUMES      L**3       RATES FOR THIS TIME STEP      L**3/T
     ------------------                 ------------------------

           IN:                                      IN:
           ---                                      ---
               AG WELLS  =   120005272.0000                 AG WELLS  =          71.8153
      DIVERSION SEGMENTS =           0.0000        DIVERSION SEGMENTS =           0.0000
           GW IRRIGATION =           0.0000             GW IRRIGATION =           0.0000
           SW IRRIGATION =           0.0000             SW IRRIGATION =           0.0000
        SYSTEM LOSSES GW =           0.0000          SYSTEM LOSSES GW =           0.0000
        SYSTEM LOSSES SW =           0.0000          SYSTEM LOSSES SW =           0.0000

                TOTAL IN =   120005272.0000                  TOTAL IN =          71.8153

          OUT:                                     OUT:
          ----                                     ----
               AG WELLS  =           0.0000                 AG WELLS  =           0.0000
      DIVERSION SEGMENTS =           0.0000        DIVERSION SEGMENTS =           0.0000
           GW IRRIGATION =   120005272.0000             GW IRRIGATION =          71.8153
           SW IRRIGATION =           0.0000             SW IRRIGATION =           0.0000
        SYSTEM LOSSES GW =           0.0000          SYSTEM LOSSES GW =           0.0000
        SYSTEM LOSSES SW =           0.0000          SYSTEM LOSSES SW =           0.0000

               TOTAL OUT =   120005272.0000                 TOTAL OUT =          71.8153

                IN - OUT =           0.0000                  IN - OUT =           0.0000

     PERCENT DISCREPANCY =           0.00         PERCENT DISCREPANCY =           0.00



1
  VOLUMETRIC BUDGET FOR ENTIRE MODEL AT END OF TIME STEP    5, STRESS PERIOD   8
  ------------------------------------------------------------------------------

     CUMULATIVE VOLUMES      L**3       RATES FOR THIS TIME STEP      L**3/T
     ------------------                 ------------------------

           IN:                                      IN:
           ---                                      ---
             STORAGE     =   126032696.0000               STORAGE     =          71.5578
       CONSTANT HEAD     =           0.0000         CONSTANT HEAD     =           0.0000
     HEAD DEP BOUNDS     =     4654242.0000       HEAD DEP BOUNDS     =           0.2855
      STREAM LEAKAGE     =   208018544.0000        STREAM LEAKAGE     =          13.2635
        UZF RECHARGE     =       73223.9531          UZF RECHARGE     =           0.0000
               GW ET     =           0.0000                 GW ET     =           0.0000
     SURFACE LEAKAGE     =           0.0000       SURFACE LEAKAGE     =           0.0000
           AG WELLS      =           0.0000             AG WELLS      =           0.0000

                TOTAL IN =   338778688.0000                  TOTAL IN =          85.1068

          OUT:                                     OUT:
          ----                                     ----
             STORAGE     =    42410584.0000               STORAGE     =           1.4506
       CONSTANT HEAD     =           0.0000         CONSTANT HEAD     =           0.0000
     HEAD DEP BOUNDS     =     4805403.5000       HEAD DEP BOUNDS     =           0.2994
      STREAM LEAKAGE     =   164655696.0000        STREAM LEAKAGE     =           9.7047
        UZF RECHARGE     =           0.0000          UZF RECHARGE     =           0.0000
               GW ET     =     6904298.0000                 GW ET     =           1.8361
     SURFACE LEAKAGE     =           0.0000       SURFACE LEAKAGE     =           0.0000
           AG WELLS      =   120005272.0000             AG WELLS      =          71.8153

               TOTAL OUT =   338781248.0000                 TOTAL OUT =          85.1062

                IN - OUT =       -2560.0000                  IN - OUT =       6.4850E-04

     PERCENT DISCREPANCY =          -0.00         PERCENT DISCREPANCY =           0.00






         TIME SUMMARY AT END OF TIME STEP    5 IN STRESS PERIOD    8
                    SECONDS     MINUTES      HOURS       DAYS        YEARS
                    -----------------------------------------------------------
   TIME STEP LENGTH  87667.      1461.1      24.352      1.0147     2.77799E-03
 STRESS PERIOD TIME 4.38333E+05  7305.6      121.76      5.0733     1.38899E-02
         TOTAL TIME 1.63048E+07 2.71746E+05  4529.1      188.71     0.51667    
1
 
 SOLVING FOR HEAD 
                                                   Max.-Head-Change                         Max.-Flux-Residual
  Residual-Control   Outer-Iter.   Inner-Iter.     Column Row Layer    Maximum-Head-Change  Column Row Layer    Maximum-Flux-Residual          L2-NORM 
          0                 1           2             4    7     1      -0.1607182527E+00       4    7    1        -0.8420489321E+01      0.1877544175E+02
          0                 2           2             6    7     1       0.2565512873E-02       6    7    1         0.1416438685E+00      0.4107516676E+00
          0                 3           2             5    7     1      -0.1216613051E-01       4    7    1        -0.6479937875E+00      0.1567299077E+01
          0                 4           2             4    7     1      -0.9015997768E-02       4    7    1        -0.4991685519E+00      0.1142839946E+01
          0                 5           2             5    7     1       0.8478019797E-03       5    7    1         0.4640252521E-01      0.1052000938E+00
          0                 6           1             5    7     1      -0.5773226913E-04       5    7    1        -0.3267639780E-02      0.7266982635E-02

    ------------------------------------------------
       NWT REQUIRED            6 OUTER ITERATIONS 
       AND A TOTAL OF         11 INNER ITERATIONS.
    ------------------------------------------------

 NO OUTPUT CONTROL FOR STRESS PERIOD    8   TIME STEP    6
 
 SOLVING FOR HEAD 
                                                   Max.-Head-Change                         Max.-Flux-Residual
  Residual-Control   Outer-Iter.   Inner-Iter.     Column Row Layer    Maximum-Head-Change  Column Row Layer    Maximum-Flux-Residual          L2-NORM 
          0                 1           2             4    7     1      -0.1591560536E+00       4    7    1        -0.8341239614E+01      0.1847127183E+02
          0                 2           2             6    7     1       0.2738293347E-02       6    7    1         0.1513537180E+00      0.4479586912E+00
          0                 3           2             5    7     1      -0.1214055562E-01       4    7    1        -0.6474581108E+00      0.1563766728E+01
          0                 4           2             4    7     1      -0.9016448323E-02       4    7    1        -0.4991860811E+00      0.1143177375E+01
          0                 5           2             5    7     1       0.8480531547E-03       5    7    1         0.4641592331E-01      0.1052360144E+00
          0                 6           1             5    7     1      -0.5774937327E-04       5    7    1        -0.3268571044E-02      0.7269516330E-02

    ------------------------------------------------
       NWT REQUIRED            6 OUTER ITERATIONS 
       AND A TOTAL OF         11 INNER ITERATIONS.
    ------------------------------------------------

 NO OUTPUT CONTROL FOR STRESS PERIOD    8   TIME STEP    7
 
 SOLVING FOR HEAD 
                                                   Max.-Head-Change                         Max.-Flux-Residual
  Residual-Control   Outer-Iter.   Inner-Iter.     Column Row Layer    Maximum-Head-Change  Column Row Layer    Maximum-Flux-Residual          L2-NORM 
          0                 1           2             4    7     1      -0.1575614727E+00       4    7    1        -0.8260068736E+01      0.1818151056E+02
          0                 2           2             6    7     1       0.2902362080E-02       6    7    1         0.1605817147E+00      0.4848378684E+00
          0                 3           2             5    7     1      -0.1211545307E-01       4    7    1        -0.6469085048E+00      0.1560353839E+01
          0                 4           2             4    7     1      -0.9016908509E-02       4    7    1        -0.4992042870E+00      0.1143502948E+01
          0                 5           2             5    7     1       0.8482997983E-03       5    7    1         0.4642909228E-01      0.1052706184E+00
          0                 6           1             5    7     1      -0.5776616879E-04       5    7    1        -0.3269486438E-02      0.7271956424E-02

    ------------------------------------------------
       NWT REQUIRED            6 OUTER ITERATIONS 
       AND A TOTAL OF         11 INNER ITERATIONS.
    ------------------------------------------------

 NO OUTPUT CONTROL FOR STRESS PERIOD    8   TIME STEP    8
 
 SOLVING FOR HEAD 
                                                   Max.-Head-Change                         Max.-Flux-Residual
  Residual-Control   Outer-Iter.   Inner-Iter.     Column Row Layer    Maximum-Head-Change  Column Row Layer    Maximum-Flux-Residual          L2-NORM 
          0                 1           2             4    7     1      -0.1559387611E+00       4    7    1        -0.8177211838E+01      0.1790494659E+02
          0                 2           2             5    8     1      -0.3188519998E-02       5    8    1        -0.1784081258E+00      0.5208163866E+00
          0                 3           2             5    7     1      -0.1209083362E-01       4    7    1        -0.6463466279E+00      0.1557054114E+01
          0                 4           2             4    7     1      -0.9017377112E-02       4    7    1        -0.4992230990E+00      0.1143817250E+01
          0                 5           2             5    7     1       0.8485417984E-03       5    7    1         0.4644202411E-01      0.1053039737E+00
          0                 6           1             5    7     1      -0.5778264811E-04       5    7    1        -0.3270385379E-02      0.7274307615E-02

    ------------------------------------------------
       NWT REQUIRED            6 OUTER ITERATIONS 
       AND A TOTAL OF         11 INNER ITERATIONS.
    ------------------------------------------------

 NO OUTPUT CONTROL FOR STRESS PERIOD    8   TIME STEP    9
 
 SOLVING FOR HEAD 
                                                   Max.-Head-Change                         Max.-Flux-Residual
  Residual-Control   Outer-Iter.   Inner-Iter.     Column Row Layer    Maximum-Head-Change  Column Row Layer    Maximum-Flux-Residual          L2-NORM 
          0                 1           2             4    7     1      -0.1542920178E+00       4    7    1        -0.8092896795E+01      0.1764062507E+02
          0                 2           2             5    8     1      -0.3504226525E-02       5    8    1        -0.1956679736E+00      0.5562724730E+00
          0                 3           2             5    7     1      -0.1206669761E-01       4    7    1        -0.6457740760E+00      0.1553863180E+01
          0                 4           2             4    7     1      -0.9017852907E-02       4    7    1        -0.4992424509E+00      0.1144120755E+01
          0                 5           2             5    7     1       0.8487791453E-03       5    7    1         0.4645471672E-01      0.1053361312E+00
          0                 6           1             5    7     1      -0.5779881018E-04       5    7    1        -0.3271267681E-02      0.7276573716E-02

    ------------------------------------------------
       NWT REQUIRED            6 OUTER ITERATIONS 
       AND A TOTAL OF         11 INNER ITERATIONS.
    ------------------------------------------------

 OUTPUT CONTROL FOR STRESS PERIOD    8   TIME STEP   10
    PRINT BUDGET
    SAVE BUDGET
 UBDSV1 SAVING "         STORAGE" ON UNIT 102 AT TIME STEP 10, STRESS PERIOD   8
 UBDSV2 SAVING "   CONSTANT HEAD" ON UNIT 102 AT TIME STEP 10, STRESS PERIOD   8
 UBDSV1 SAVING "FLOW RIGHT FACE " ON UNIT 102 AT TIME STEP 10, STRESS PERIOD   8
 UBDSV1 SAVING "FLOW FRONT FACE " ON UNIT 102 AT TIME STEP 10, STRESS PERIOD   8

  HEAD DEP BOUNDS   PERIOD    8   STEP    10
 BOUNDARY      1   LAYER   1   ROW    13   COL     1   RATE   -0.299185    
 BOUNDARY      2   LAYER   1   ROW    14   COL     9   RATE    0.285481    



 STREAM LISTING     PERIOD      8   STEP       10

 LAYER ROW COL. STREAM  RCH.  FLOW INTO     FLOW TO   FLOW OUT OF   OVRLND.     DIRECT     STREAM       STREAM     STREAM     STREAM   STREAMBED  STREAMBED
                SEG.NO.  NO.  STRM. RCH.    AQUIFER    STRM. RCH.    RUNOFF     PRECIP       ET          HEAD       DEPTH      WIDTH   CONDCTNC.   GRADIENT

   1    1    1     1     1    7.5000E+01  4.2232E-01   7.4578E+01  0.000E+00  0.000E+00  0.000E+00  1.09475E+03  1.698E+00  1.998E+01  8.990E-02  1.566E+00
   1    2    2     1     2    7.4578E+01  6.5422E-01   7.3924E+01  0.000E+00  0.000E+00  0.000E+00  1.08975E+03  1.692E+00  1.992E+01  1.394E-01  1.564E+00
   1    3    3     1     3    7.3924E+01  5.5813E-01   7.3366E+01  0.000E+00  0.000E+00  0.000E+00  1.08410E+03  1.685E+00  1.985E+01  1.191E-01  1.562E+00
   1    3    4     1     4    7.3366E+01  5.1412E-01   7.2852E+01  0.000E+00  0.000E+00  0.000E+00  1.07909E+03  1.679E+00  1.980E+01  1.099E-01  1.560E+00
   1    4    5     2     1    7.0852E+01  4.0967E-01   7.0442E+01  0.000E+00  0.000E+00  0.000E+00  1.07419E+03  2.252E+00  1.200E+01  7.800E-02  1.751E+00
   1    5    6     2     2    7.0442E+01  3.1471E-01   7.0127E+01  0.000E+00  0.000E+00  0.000E+00  1.06875E+03  2.245E+00  1.200E+01  6.000E-02  1.748E+00
   1    6    6     2     3    7.0127E+01  3.1435E-01   6.9813E+01  0.000E+00  0.000E+00  0.000E+00  1.06403E+03  2.239E+00  1.200E+01  6.000E-02  1.746E+00
   1    7    6     2     4    6.9813E+01  3.1399E-01   6.9499E+01  0.000E+00  0.000E+00  0.000E+00  1.05931E+03  2.233E+00  1.200E+01  6.000E-02  1.744E+00
   1    8    6     2     5    6.9499E+01  3.1363E-01   6.9185E+01  0.000E+00  0.000E+00  0.000E+00  1.05459E+03  2.227E+00  1.200E+01  6.000E-02  1.742E+00
   1    3    5     3     1    2.0000E+00  2.8252E-01   1.7175E+00  0.000E+00  0.000E+00  0.000E+00  1.07555E+03  1.909E+00  9.636E+00  7.227E-02  1.955E+00
   1    3    6     3     2    1.7175E+00  2.4905E-01   1.4684E+00  0.000E+00  0.000E+00  0.000E+00  1.07264E+03  1.727E+00  8.909E+00  6.682E-02  1.864E+00
   1    3    7     3     3    1.4684E+00  1.9718E-01   1.2712E+00  0.000E+00  0.000E+00  0.000E+00  1.06987E+03  1.555E+00  8.218E+00  5.547E-02  1.777E+00
   1    4    8     3     4    1.2712E+00  2.2567E-01   1.0456E+00  0.000E+00  0.000E+00  0.000E+00  1.06682E+03  1.364E+00  7.455E+00  6.709E-02  1.682E+00
   1    5    8     3     5    1.0456E+00  1.5790E-01   8.8768E-01  0.000E+00  0.000E+00  0.000E+00  1.06362E+03  1.164E+00  6.655E+00  4.991E-02  1.582E+00
   1    6    8     3     6    8.8768E-01  5.5980E-02   8.3170E-01  0.000E+00  0.000E+00  0.000E+00  1.06158E+03  1.036E+00  6.145E+00  1.844E-02  1.518E+00
   1    5   10     4     1    1.0000E+01  9.0919E-02   9.9091E+00  0.000E+00  0.000E+00  0.000E+00  1.07836E+03  6.368E-01  1.000E+01  2.500E-02  1.212E+00
   1    5    9     4     2    9.9091E+00  1.8158E-01   9.7275E+00  0.000E+00  0.000E+00  0.000E+00  1.07154E+03  6.315E-01  1.000E+01  5.000E-02  1.211E+00
   1    6    8     4     3    9.7275E+00  1.2689E-01   9.6006E+00  0.000E+00  0.000E+00  0.000E+00  1.06381E+03  6.256E-01  1.000E+01  3.500E-02  1.209E+00
   1    6    8     5     1    1.0432E+01  2.2686E-01   1.0205E+01  0.000E+00  0.000E+00  0.000E+00  1.05868E+03  6.790E-01  1.542E+01  6.166E-02  1.226E+00
   1    7    7     5     2    1.0205E+01  2.7894E-01   9.9265E+00  0.000E+00  0.000E+00  0.000E+00  1.05417E+03  6.732E-01  1.519E+01  7.594E-02  1.224E+00
   1    8    7     5     3    9.9265E+00  1.9221E-01   9.7343E+00  0.000E+00  0.000E+00  0.000E+00  1.04992E+03  6.676E-01  1.497E+01  5.241E-02  1.223E+00
   1    8    6     5     4    9.7343E+00  1.3577E-01   9.5985E+00  0.000E+00  0.000E+00  0.000E+00  1.04691E+03  6.637E-01  1.482E+01  3.706E-02  1.221E+00
   1    9    6     6     1    7.8784E+01  3.2569E-01   7.8458E+01  0.000E+00  0.000E+00  0.000E+00  1.04516E+03  2.428E+00  1.200E+01  6.000E-02  1.809E+00
   1   10    7     6     2    7.8458E+01  3.2533E-01   7.8133E+01  0.000E+00  0.000E+00  0.000E+00  1.04060E+03  2.422E+00  1.200E+01  6.000E-02  1.807E+00
   1   11    7     6     3    7.8133E+01  3.2497E-01   7.7808E+01  0.000E+00  0.000E+00  0.000E+00  1.03605E+03  2.416E+00  1.200E+01  6.000E-02  1.805E+00
   1   12    7     6     4    7.7808E+01  3.2461E-01   7.7483E+01  0.000E+00  0.000E+00  0.000E+00  1.03150E+03  2.410E+00  1.200E+01  6.000E-02  1.803E+00
   1   13    7     6     5    7.7483E+01  2.5897E-02   7.7457E+01  0.000E+00  0.000E+00  0.000E+00  1.02832E+03  2.407E+00  1.200E+01  2.400E-02  3.597E-01
   1   14    9     7     1    1.5000E+02  1.3317E+00   1.4867E+02  0.000E+00  0.000E+00  0.000E+00  1.03987E+03  2.288E+00  5.529E+01  5.593E-01  7.937E-01
   1   13    8     7     2    1.4867E+02  1.8009E+00   1.4687E+02  0.000E+00  0.000E+00  0.000E+00  1.03478E+03  2.279E+00  5.526E+01  6.148E-01  9.765E-01
   1   13    7     7     3    1.4687E+02  1.3702E+00   1.4550E+02  0.000E+00  0.000E+00  0.000E+00  1.02969E+03  2.271E+00  5.522E+01  5.585E-01  8.178E-01
   1   13    6     8     1    2.2295E+02  1.0170E+00   2.2194E+02  0.000E+00  0.000E+00  0.000E+00  1.02514E+03  3.265E+00  4.735E+01  4.825E-01  7.026E-01
   1   13    5     8     2    2.2194E+02  1.9942E-01   2.2174E+02  0.000E+00  0.000E+00  0.000E+00  1.01889E+03  3.262E+00  4.730E+01  4.820E-01  1.379E-01
   1   13    4     8     3    2.2174E+02 -1.9212E+00   2.2366E+02  0.000E+00  0.000E+00  0.000E+00  1.01264E+03  3.267E+00  4.737E+01  4.827E+00 -1.327E-01
   1   13    3     8     4    2.2366E+02 -3.0746E+00   2.2673E+02  0.000E+00  0.000E+00  0.000E+00  1.00641E+03  3.280E+00  4.757E+01  4.847E+00 -2.114E-01
   1   13    2     8     5    2.2673E+02 -2.5694E+00   2.2930E+02  0.000E+00  0.000E+00  0.000E+00  1.00017E+03  3.296E+00  4.779E+01  4.870E+00 -1.759E-01
   1   13    1     8     6    2.2930E+02 -2.0238E+00   2.3133E+02  0.000E+00  0.000E+00  0.000E+00  9.95183E+02  3.308E+00  4.797E+01  2.933E+00 -2.300E-01



 UBDSV3 SAVING "           GW ET" ON UNIT  61 AT TIME STEP 10, STRESS PERIOD   8
 UBDSV3 SAVING "    UZF RECHARGE" ON UNIT  61 AT TIME STEP 10, STRESS PERIOD   8
 UBDSV3 SAVING " SURFACE LEAKAGE" ON UNIT  61 AT TIME STEP 10, STRESS PERIOD   8
 UBDSV3 SAVING "       HORT+DUNN" ON UNIT  61 AT TIME STEP 10, STRESS PERIOD   8
 UBDSV3 SAVING "  STORAGE CHANGE" ON UNIT  61 AT TIME STEP 10, STRESS PERIOD   8


UNSATURATED ZONE PACKAGE VOLUMETRIC BUDGET FOR  TIME STEP    10 STRESS PERIOD    8
  ------------------------------------------------------------------------------



     CUMULATIVE VOLUMES      L**3       RATES FOR THIS TIME STEP      L**3/T
     ------------------                 ------------------------

           IN:                                      IN:
           ---                                      ---
        INFILTRATION =   165673970.3078          INFILTRATION =          72.6628

          OUT:                                     OUT:
          ----                                     ----
              UZF ET =   152957605.3318                UZF ET =          58.2420
        UZF RECHARGE =       73224.0000          UZF RECHARGE =       0.0000E+00

            IN - OUT =    12643140.9760              IN - OUT =          14.4207

          STORAGE:                                 STORAGE:
          --------                                 --------
      STORAGE CHANGE =    12643141.6891        STORAGE CHANGE =          14.4207

 PERCENT DISCREPANCY IS DIFFERENCE BETWEEN IN-OUT MINUS CHANGE IN STORAGE
 DIVIDED BY THE AVERAGE OF IN AND OUT TIMES 100

 PERCENT DISCREPANCY =           0.00     PERCENT DISCREPANCY =           0.00






 

            AG WELLS      PERIOD    8   STEP  10
 AG WELL      1   LAYER   1   ROW     6   COL     4   RATE    -11.9692    
 AG WELL      2   LAYER   1   ROW     6   COL     5   RATE    -11.9692    
 AG WELL      3   LAYER   1   ROW     7   COL     4   RATE    -11.9692    
 AG WELL      4   LAYER   1   ROW     7   COL     5   RATE    -11.9692    
 AG WELL      5   LAYER   1   ROW     8   COL     4   RATE    -11.9692    
 AG WELL      6   LAYER   1   ROW     8   COL     5   RATE    -11.9692    
 
 

        GW IRRIGATION     PERIOD    8   STEP  10
 AG WELL      1   ROW     6   COL     4   RATE     11.9692    
 AG WELL      2   ROW     6   COL     5   RATE     11.9692    
 AG WELL      3   ROW     7   COL     4   RATE     11.9692    
 AG WELL      4   ROW     7   COL     5   RATE     11.9692    
 AG WELL      5   ROW     8   COL     4   RATE     11.9692    
 AG WELL      6   ROW     8   COL     5   RATE     11.9692    
 
1
  VOLUMETRIC BUDGET FOR AGRICULTURAL FIELDS AT  END OF TIME STEP   10, STRESS PERIOD   8
  ------------------------------------------------------------------------------

     CUMULATIVE VOLUMES      L**3       RATES FOR THIS TIME STEP      L**3/T
     ------------------                 ------------------------

           IN:                                      IN:
           ---                                      ---
               AG WELLS  =   151484304.0000                 AG WELLS  =          71.8153
      DIVERSION SEGMENTS =           0.0000        DIVERSION SEGMENTS =           0.0000
           GW IRRIGATION =           0.0000             GW IRRIGATION =           0.0000
           SW IRRIGATION =           0.0000             SW IRRIGATION =           0.0000
        SYSTEM LOSSES GW =           0.0000          SYSTEM LOSSES GW =           0.0000
        SYSTEM LOSSES SW =           0.0000          SYSTEM LOSSES SW =           0.0000

                TOTAL IN =   151484304.0000                  TOTAL IN =          71.8153

          OUT:                                     OUT:
          ----                                     ----
               AG WELLS  =           0.0000                 AG WELLS  =           0.0000
      DIVERSION SEGMENTS =           0.0000        DIVERSION SEGMENTS =           0.0000
           GW IRRIGATION =   151484304.0000             GW IRRIGATION =          71.8153
           SW IRRIGATION =           0.0000             SW IRRIGATION =           0.0000
        SYSTEM LOSSES GW =           0.0000          SYSTEM LOSSES GW =           0.0000
        SYSTEM LOSSES SW =           0.0000          SYSTEM LOSSES SW =           0.0000

               TOTAL OUT =   151484304.0000                 TOTAL OUT =          71.8153

                IN - OUT =           0.0000                  IN - OUT =           0.0000

     PERCENT DISCREPANCY =           0.00         PERCENT DISCREPANCY =           0.00



1
  VOLUMETRIC BUDGET FOR ENTIRE MODEL AT END OF TIME STEP   10, STRESS PERIOD   8
  ------------------------------------------------------------------------------

     CUMULATIVE VOLUMES      L**3       RATES FOR THIS TIME STEP      L**3/T
     ------------------                 ------------------------

           IN:                                      IN:
           ---                                      ---
             STORAGE     =   157266992.0000               STORAGE     =          71.1282
       CONSTANT HEAD     =           0.0000         CONSTANT HEAD     =           0.0000
     HEAD DEP BOUNDS     =     4779378.0000       HEAD DEP BOUNDS     =           0.2855
      STREAM LEAKAGE     =   213832096.0000        STREAM LEAKAGE     =          13.2624
        UZF RECHARGE     =       73223.9531          UZF RECHARGE     =           0.0000
               GW ET     =           0.0000                 GW ET     =           0.0000
     SURFACE LEAKAGE     =           0.0000       SURFACE LEAKAGE     =           0.0000
           AG WELLS      =           0.0000             AG WELLS      =           0.0000

                TOTAL IN =   375951680.0000                  TOTAL IN =          84.6760

          OUT:                                     OUT:
          ----                                     ----
             STORAGE     =    43028380.0000               STORAGE     =           1.3812
       CONSTANT HEAD     =           0.0000         CONSTANT HEAD     =           0.0000
     HEAD DEP BOUNDS     =     4936586.5000       HEAD DEP BOUNDS     =           0.2992
      STREAM LEAKAGE     =   168874960.0000        STREAM LEAKAGE     =           9.5890
        UZF RECHARGE     =           0.0000          UZF RECHARGE     =           0.0000
               GW ET     =     7629710.0000                 GW ET     =           1.5908
     SURFACE LEAKAGE     =           0.0000       SURFACE LEAKAGE     =           0.0000
           AG WELLS      =   151484304.0000             AG WELLS      =          71.8153

               TOTAL OUT =   375953952.0000                 TOTAL OUT =          84.6754

                IN - OUT =       -2272.0000                  IN - OUT =       6.4850E-04

     PERCENT DISCREPANCY =          -0.00         PERCENT DISCREPANCY =           0.00






         TIME SUMMARY AT END OF TIME STEP   10 IN STRESS PERIOD    8
                    SECONDS     MINUTES      HOURS       DAYS        YEARS
                    -----------------------------------------------------------
   TIME STEP LENGTH  87667.      1461.1      24.352      1.0147     2.77799E-03
 STRESS PERIOD TIME 8.76667E+05  14611.      243.52      10.147     2.77799E-02
         TOTAL TIME 1.67431E+07 2.79052E+05  4650.9      193.79     0.53056    
1
 
 SOLVING FOR HEAD 
                                                   Max.-Head-Change                         Max.-Flux-Residual
  Residual-Control   Outer-Iter.   Inner-Iter.     Column Row Layer    Maximum-Head-Change  Column Row Layer    Maximum-Flux-Residual          L2-NORM 
          0                 1           2             4    7     1      -0.1526249221E+00       4    7    1        -0.8007328461E+01      0.1738764521E+02
          0                 2           2             5    8     1      -0.3804589365E-02       5    8    1        -0.2120737267E+00      0.5905375763E+00
          0                 3           2             4    7     1      -0.1234496266E-01       4    7    1        -0.6449386081E+00      0.1550673635E+01
          0                 4           2             4    7     1      -0.8800888029E-02       5    8    1        -0.4614813267E+00      0.1128327836E+01
          0                 5           2             4    7     1       0.8560860068E-03       5    8    1         0.4616117161E-01      0.1128555455E+00
          0                 6           1             4    7     1      -0.5829628793E-04       5    8    1        -0.3231801838E-02      0.7901118800E-02

    ------------------------------------------------
       NWT REQUIRED            6 OUTER ITERATIONS 
       AND A TOTAL OF         11 INNER ITERATIONS.
    ------------------------------------------------

 NO OUTPUT CONTROL FOR STRESS PERIOD    8   TIME STEP   11
 
 SOLVING FOR HEAD 
                                                   Max.-Head-Change                         Max.-Flux-Residual
  Residual-Control   Outer-Iter.   Inner-Iter.     Column Row Layer    Maximum-Head-Change  Column Row Layer    Maximum-Flux-Residual          L2-NORM 
          0                 1           2             4    7     1      -0.1509410407E+00       4    7    1        -0.7920705522E+01      0.1714524717E+02
          0                 2           2             5    8     1      -0.4090595859E-02       5    8    1        -0.2276812247E+00      0.6237575102E+00
          0                 3           2             4    7     1      -0.1232816038E-01       4    7    1        -0.6440732022E+00      0.1547573034E+01
          0                 4           2             4    7     1      -0.8802602423E-02       5    8    1        -0.4616361063E+00      0.1128640389E+01
          0                 5           2             4    7     1       0.8562527709E-03       5    8    1         0.4617662014E-01      0.1128867748E+00
          0                 6           1             4    7     1      -0.5830764386E-04       5    8    1        -0.3232882065E-02      0.7903302137E-02

    ------------------------------------------------
       NWT REQUIRED            6 OUTER ITERATIONS 
       AND A TOTAL OF         11 INNER ITERATIONS.
    ------------------------------------------------

 NO OUTPUT CONTROL FOR STRESS PERIOD    8   TIME STEP   12
 
 SOLVING FOR HEAD 
                                                   Max.-Head-Change                         Max.-Flux-Residual
  Residual-Control   Outer-Iter.   Inner-Iter.     Column Row Layer    Maximum-Head-Change  Column Row Layer    Maximum-Flux-Residual          L2-NORM 
          0                 1           2             4    7     1      -0.1492435448E+00       4    7    1        -0.7833204937E+01      0.1691273387E+02
          0                 2           2             5    8     1      -0.4363190505E-02       5    8    1        -0.2425435245E+00      0.6559221517E+00
          0                 3           2             4    7     1      -0.1231122267E-01       4    7    1        -0.6431990060E+00      0.1544564734E+01
          0                 4           2             4    7     1      -0.8804330921E-02       5    8    1        -0.4617835224E+00      0.1128943686E+01
          0                 5           2             4    7     1       0.8564209067E-03       5    8    1         0.4619133422E-01      0.1129170809E+00
          0                 6           1             4    7     1      -0.5831909329E-04       5    8    1        -0.3233910965E-02      0.7905420945E-02

    ------------------------------------------------
       NWT REQUIRED            6 OUTER ITERATIONS 
       AND A TOTAL OF         11 INNER ITERATIONS.
    ------------------------------------------------

 NO OUTPUT CONTROL FOR STRESS PERIOD    8   TIME STEP   13
 
 SOLVING FOR HEAD 
                                                   Max.-Head-Change                         Max.-Flux-Residual
  Residual-Control   Outer-Iter.   Inner-Iter.     Column Row Layer    Maximum-Head-Change  Column Row Layer    Maximum-Flux-Residual          L2-NORM 
          0                 1           2             4    7     1      -0.1475356425E+00       4    7    1        -0.7745006069E+01      0.1668947731E+02
          0                 2           2             5    8     1      -0.4623231752E-02       5    8    1        -0.2567088120E+00      0.6870430717E+00
          0                 3           2             4    7     1      -0.1229418154E-01       4    7    1        -0.6423178128E+00      0.1541644619E+01
          0                 4           2             4    7     1      -0.8806070253E-02       5    8    1        -0.4619240503E+00      0.1129238124E+01
          0                 5           2             4    7     1       0.8565900970E-03       5    8    1         0.4620536133E-01      0.1129465020E+00
          0                 6           1             4    7     1      -0.5833061478E-04       5    8    1        -0.3234891851E-02      0.7907477902E-02

    ------------------------------------------------
       NWT REQUIRED            6 OUTER ITERATIONS 
       AND A TOTAL OF         11 INNER ITERATIONS.
    ------------------------------------------------

 NO OUTPUT CONTROL FOR STRESS PERIOD    8   TIME STEP   14
 
 SOLVING FOR HEAD 
                                                   Max.-Head-Change                         Max.-Flux-Residual
  Residual-Control   Outer-Iter.   Inner-Iter.     Column Row Layer    Maximum-Head-Change  Column Row Layer    Maximum-Flux-Residual          L2-NORM 
          0                 1           2             4    7     1      -0.1458201768E+00       4    7    1        -0.7656267899E+01      0.1647491252E+02
          0                 2           2             5    8     1      -0.4871512955E-02       5    8    1        -0.2702215984E+00      0.7171428147E+00
          0                 3           2             4    7     1      -0.1227706533E-01       4    7    1        -0.6414312116E+00      0.1538808914E+01
          0                 4           2             4    7     1      -0.8807817525E-02       5    8    1        -0.4620581296E+00      0.1129524071E+01
          0                 5           2             4    7     1       0.8567600591E-03       5    8    1         0.4621874521E-01      0.1129750748E+00
          0                 6           1             4    7     1      -0.5834218858E-04       5    8    1        -0.3235827777E-02      0.7909475506E-02

    ------------------------------------------------
       NWT REQUIRED            6 OUTER ITERATIONS 
       AND A TOTAL OF         11 INNER ITERATIONS.
    ------------------------------------------------

 OUTPUT CONTROL FOR STRESS PERIOD    8   TIME STEP   15
    PRINT BUDGET
    SAVE BUDGET
 UBDSV1 SAVING "         STORAGE" ON UNIT 102 AT TIME STEP 15, STRESS PERIOD   8
 UBDSV2 SAVING "   CONSTANT HEAD" ON UNIT 102 AT TIME STEP 15, STRESS PERIOD   8
 UBDSV1 SAVING "FLOW RIGHT FACE " ON UNIT 102 AT TIME STEP 15, STRESS PERIOD   8
 UBDSV1 SAVING "FLOW FRONT FACE " ON UNIT 102 AT TIME STEP 15, STRESS PERIOD   8

  HEAD DEP BOUNDS   PERIOD    8   STEP    15
 BOUNDARY      1   LAYER   1   ROW    13   COL     1   RATE   -0.298995    
 BOUNDARY      2   LAYER   1   ROW    14   COL     9   RATE    0.285478    



 STREAM LISTING     PERIOD      8   STEP       15

 LAYER ROW COL. STREAM  RCH.  FLOW INTO     FLOW TO   FLOW OUT OF   OVRLND.     DIRECT     STREAM       STREAM     STREAM     STREAM   STREAMBED  STREAMBED
                SEG.NO.  NO.  STRM. RCH.    AQUIFER    STRM. RCH.    RUNOFF     PRECIP       ET          HEAD       DEPTH      WIDTH   CONDCTNC.   GRADIENT

   1    1    1     1     1    7.4999E+01  4.2231E-01   7.4577E+01  0.000E+00  0.000E+00  0.000E+00  1.09475E+03  1.698E+00  1.998E+01  8.990E-02  1.566E+00
   1    2    2     1     2    7.4577E+01  6.5422E-01   7.3923E+01  0.000E+00  0.000E+00  0.000E+00  1.08975E+03  1.692E+00  1.992E+01  1.394E-01  1.564E+00
   1    3    3     1     3    7.3923E+01  5.5813E-01   7.3365E+01  0.000E+00  0.000E+00  0.000E+00  1.08410E+03  1.685E+00  1.985E+01  1.191E-01  1.562E+00
   1    3    4     1     4    7.3365E+01  5.1411E-01   7.2851E+01  0.000E+00  0.000E+00  0.000E+00  1.07909E+03  1.679E+00  1.980E+01  1.099E-01  1.560E+00
   1    4    5     2     1    7.0851E+01  4.0967E-01   7.0441E+01  0.000E+00  0.000E+00  0.000E+00  1.07419E+03  2.252E+00  1.200E+01  7.800E-02  1.751E+00
   1    5    6     2     2    7.0441E+01  3.1471E-01   7.0126E+01  0.000E+00  0.000E+00  0.000E+00  1.06875E+03  2.245E+00  1.200E+01  6.000E-02  1.748E+00
   1    6    6     2     3    7.0126E+01  3.1435E-01   6.9812E+01  0.000E+00  0.000E+00  0.000E+00  1.06403E+03  2.239E+00  1.200E+01  6.000E-02  1.746E+00
   1    7    6     2     4    6.9812E+01  3.1399E-01   6.9498E+01  0.000E+00  0.000E+00  0.000E+00  1.05931E+03  2.233E+00  1.200E+01  6.000E-02  1.744E+00
   1    8    6     2     5    6.9498E+01  3.1363E-01   6.9184E+01  0.000E+00  0.000E+00  0.000E+00  1.05459E+03  2.227E+00  1.200E+01  6.000E-02  1.742E+00
   1    3    5     3     1    2.0000E+00  2.8252E-01   1.7175E+00  0.000E+00  0.000E+00  0.000E+00  1.07555E+03  1.909E+00  9.636E+00  7.227E-02  1.955E+00
   1    3    6     3     2    1.7175E+00  2.4905E-01   1.4684E+00  0.000E+00  0.000E+00  0.000E+00  1.07264E+03  1.727E+00  8.909E+00  6.682E-02  1.864E+00
   1    3    7     3     3    1.4684E+00  1.9718E-01   1.2712E+00  0.000E+00  0.000E+00  0.000E+00  1.06987E+03  1.555E+00  8.218E+00  5.547E-02  1.777E+00
   1    4    8     3     4    1.2712E+00  2.2567E-01   1.0456E+00  0.000E+00  0.000E+00  0.000E+00  1.06682E+03  1.364E+00  7.455E+00  6.709E-02  1.682E+00
   1    5    8     3     5    1.0456E+00  1.5790E-01   8.8768E-01  0.000E+00  0.000E+00  0.000E+00  1.06362E+03  1.164E+00  6.655E+00  4.991E-02  1.582E+00
   1    6    8     3     6    8.8768E-01  5.5980E-02   8.3170E-01  0.000E+00  0.000E+00  0.000E+00  1.06158E+03  1.036E+00  6.145E+00  1.844E-02  1.518E+00
   1    5   10     4     1    1.0000E+01  9.0919E-02   9.9091E+00  0.000E+00  0.000E+00  0.000E+00  1.07836E+03  6.368E-01  1.000E+01  2.500E-02  1.212E+00
   1    5    9     4     2    9.9091E+00  1.8158E-01   9.7275E+00  0.000E+00  0.000E+00  0.000E+00  1.07154E+03  6.315E-01  1.000E+01  5.000E-02  1.211E+00
   1    6    8     4     3    9.7275E+00  1.2689E-01   9.6006E+00  0.000E+00  0.000E+00  0.000E+00  1.06381E+03  6.256E-01  1.000E+01  3.500E-02  1.209E+00
   1    6    8     5     1    1.0432E+01  2.2686E-01   1.0205E+01  0.000E+00  0.000E+00  0.000E+00  1.05868E+03  6.790E-01  1.542E+01  6.166E-02  1.226E+00
   1    7    7     5     2    1.0205E+01  2.7894E-01   9.9265E+00  0.000E+00  0.000E+00  0.000E+00  1.05417E+03  6.732E-01  1.519E+01  7.594E-02  1.224E+00
   1    8    7     5     3    9.9265E+00  1.9221E-01   9.7343E+00  0.000E+00  0.000E+00  0.000E+00  1.04992E+03  6.676E-01  1.497E+01  5.241E-02  1.223E+00
   1    8    6     5     4    9.7343E+00  1.3577E-01   9.5985E+00  0.000E+00  0.000E+00  0.000E+00  1.04691E+03  6.637E-01  1.482E+01  3.706E-02  1.221E+00
   1    9    6     6     1    7.8783E+01  3.2569E-01   7.8457E+01  0.000E+00  0.000E+00  0.000E+00  1.04516E+03  2.428E+00  1.200E+01  6.000E-02  1.809E+00
   1   10    7     6     2    7.8457E+01  3.2533E-01   7.8132E+01  0.000E+00  0.000E+00  0.000E+00  1.04060E+03  2.422E+00  1.200E+01  6.000E-02  1.807E+00
   1   11    7     6     3    7.8132E+01  3.2497E-01   7.7807E+01  0.000E+00  0.000E+00  0.000E+00  1.03605E+03  2.416E+00  1.200E+01  6.000E-02  1.805E+00
   1   12    7     6     4    7.7807E+01  3.2461E-01   7.7482E+01  0.000E+00  0.000E+00  0.000E+00  1.03150E+03  2.410E+00  1.200E+01  6.000E-02  1.803E+00
   1   13    7     6     5    7.7482E+01  2.5848E-02   7.7456E+01  0.000E+00  0.000E+00  0.000E+00  1.02832E+03  2.407E+00  1.200E+01  2.400E-02  3.590E-01
   1   14    9     7     1    1.5000E+02  1.3317E+00   1.4867E+02  0.000E+00  0.000E+00  0.000E+00  1.03987E+03  2.288E+00  5.529E+01  5.593E-01  7.937E-01
   1   13    8     7     2    1.4867E+02  1.8003E+00   1.4687E+02  0.000E+00  0.000E+00  0.000E+00  1.03478E+03  2.279E+00  5.526E+01  6.148E-01  9.761E-01
   1   13    7     7     3    1.4687E+02  1.3690E+00   1.4550E+02  0.000E+00  0.000E+00  0.000E+00  1.02969E+03  2.271E+00  5.522E+01  5.585E-01  8.171E-01
   1   13    6     8     1    2.2296E+02  1.0167E+00   2.2194E+02  0.000E+00  0.000E+00  0.000E+00  1.02514E+03  3.265E+00  4.735E+01  4.825E-01  7.024E-01
   1   13    5     8     2    2.2194E+02  2.0027E-01   2.2174E+02  0.000E+00  0.000E+00  0.000E+00  1.01889E+03  3.262E+00  4.730E+01  4.820E-01  1.385E-01
   1   13    4     8     3    2.2174E+02 -1.9164E+00   2.2365E+02  0.000E+00  0.000E+00  0.000E+00  1.01264E+03  3.267E+00  4.737E+01  4.827E+00 -1.323E-01
   1   13    3     8     4    2.2365E+02 -3.0694E+00   2.2672E+02  0.000E+00  0.000E+00  0.000E+00  1.00641E+03  3.280E+00  4.757E+01  4.847E+00 -2.111E-01
   1   13    2     8     5    2.2672E+02 -2.5431E+00   2.2927E+02  0.000E+00  0.000E+00  0.000E+00  1.00017E+03  3.296E+00  4.779E+01  4.870E+00 -1.741E-01
   1   13    1     8     6    2.2927E+02 -2.0097E+00   2.3128E+02  0.000E+00  0.000E+00  0.000E+00  9.95183E+02  3.308E+00  4.797E+01  2.933E+00 -2.284E-01



 UBDSV3 SAVING "           GW ET" ON UNIT  61 AT TIME STEP 15, STRESS PERIOD   8
 UBDSV3 SAVING "    UZF RECHARGE" ON UNIT  61 AT TIME STEP 15, STRESS PERIOD   8
 UBDSV3 SAVING " SURFACE LEAKAGE" ON UNIT  61 AT TIME STEP 15, STRESS PERIOD   8
 UBDSV3 SAVING "       HORT+DUNN" ON UNIT  61 AT TIME STEP 15, STRESS PERIOD   8
 UBDSV3 SAVING "  STORAGE CHANGE" ON UNIT  61 AT TIME STEP 15, STRESS PERIOD   8


UNSATURATED ZONE PACKAGE VOLUMETRIC BUDGET FOR  TIME STEP    15 STRESS PERIOD    8
  ------------------------------------------------------------------------------



     CUMULATIVE VOLUMES      L**3       RATES FOR THIS TIME STEP      L**3/T
     ------------------                 ------------------------

           IN:                                      IN:
           ---                                      ---
        INFILTRATION =   197524477.7872          INFILTRATION =          72.6628

          OUT:                                     OUT:
          ----                                     ----
              UZF ET =   178487026.5612                UZF ET =          58.2420
        UZF RECHARGE =       73224.0000          UZF RECHARGE =       0.0000E+00

            IN - OUT =    18964227.2260              IN - OUT =          14.4207

          STORAGE:                                 STORAGE:
          --------                                 --------
      STORAGE CHANGE =    18964228.2497        STORAGE CHANGE =          14.4207

 PERCENT DISCREPANCY IS DIFFERENCE BETWEEN IN-OUT MINUS CHANGE IN STORAGE
 DIVIDED BY THE AVERAGE OF IN AND OUT TIMES 100

 PERCENT DISCREPANCY =           0.00     PERCENT DISCREPANCY =           0.00






 

            AG WELLS      PERIOD    8   STEP  15
 AG WELL      1   LAYER   1   ROW     6   COL     4   RATE    -11.9692    
 AG WELL      2   LAYER   1   ROW     6   COL     5   RATE    -11.9692    
 AG WELL      3   LAYER   1   ROW     7   COL     4   RATE    -11.9692    
 AG WELL      4   LAYER   1   ROW     7   COL     5   RATE    -11.9692    
 AG WELL      5   LAYER   1   ROW     8   COL     4   RATE    -11.9692    
 AG WELL      6   LAYER   1   ROW     8   COL     5   RATE    -11.9692    
 
 

        GW IRRIGATION     PERIOD    8   STEP  15
 AG WELL      1   ROW     6   COL     4   RATE     11.9692    
 AG WELL      2   ROW     6   COL     5   RATE     11.9692    
 AG WELL      3   ROW     7   COL     4   RATE     11.9692    
 AG WELL      4   ROW     7   COL     5   RATE     11.9692    
 AG WELL      5   ROW     8   COL     4   RATE     11.9692    
 AG WELL      6   ROW     8   COL     5   RATE     11.9692    
 
1
  VOLUMETRIC BUDGET FOR AGRICULTURAL FIELDS AT  END OF TIME STEP   15, STRESS PERIOD   8
  ------------------------------------------------------------------------------

     CUMULATIVE VOLUMES      L**3       RATES FOR THIS TIME STEP      L**3/T
     ------------------                 ------------------------

           IN:                                      IN:
           ---                                      ---
               AG WELLS  =   182963344.0000                 AG WELLS  =          71.8153
      DIVERSION SEGMENTS =           0.0000        DIVERSION SEGMENTS =           0.0000
           GW IRRIGATION =           0.0000             GW IRRIGATION =           0.0000
           SW IRRIGATION =           0.0000             SW IRRIGATION =           0.0000
        SYSTEM LOSSES GW =           0.0000          SYSTEM LOSSES GW =           0.0000
        SYSTEM LOSSES SW =           0.0000          SYSTEM LOSSES SW =           0.0000

                TOTAL IN =   182963344.0000                  TOTAL IN =          71.8153

          OUT:                                     OUT:
          ----                                     ----
               AG WELLS  =           0.0000                 AG WELLS  =           0.0000
      DIVERSION SEGMENTS =           0.0000        DIVERSION SEGMENTS =           0.0000
           GW IRRIGATION =   182963344.0000             GW IRRIGATION =          71.8153
           SW IRRIGATION =           0.0000             SW IRRIGATION =           0.0000
        SYSTEM LOSSES GW =           0.0000          SYSTEM LOSSES GW =           0.0000
        SYSTEM LOSSES SW =           0.0000          SYSTEM LOSSES SW =           0.0000

               TOTAL OUT =   182963344.0000                 TOTAL OUT =          71.8153

                IN - OUT =           0.0000                  IN - OUT =           0.0000

     PERCENT DISCREPANCY =           0.00         PERCENT DISCREPANCY =           0.00



1
  VOLUMETRIC BUDGET FOR ENTIRE MODEL AT END OF TIME STEP   15, STRESS PERIOD   8
  ------------------------------------------------------------------------------

     CUMULATIVE VOLUMES      L**3       RATES FOR THIS TIME STEP      L**3/T
     ------------------                 ------------------------

           IN:                                      IN:
           ---                                      ---
             STORAGE     =   188399424.0000               STORAGE     =          70.9692
       CONSTANT HEAD     =           0.0000         CONSTANT HEAD     =           0.0000
     HEAD DEP BOUNDS     =     4904513.0000       HEAD DEP BOUNDS     =           0.2855
      STREAM LEAKAGE     =   219645072.0000        STREAM LEAKAGE     =          13.2610
        UZF RECHARGE     =       73223.9531          UZF RECHARGE     =           0.0000
               GW ET     =           0.0000                 GW ET     =           0.0000
     SURFACE LEAKAGE     =           0.0000       SURFACE LEAKAGE     =           0.0000
           AG WELLS      =           0.0000             AG WELLS      =           0.0000

                TOTAL IN =   413022208.0000                  TOTAL IN =          84.5157

          OUT:                                     OUT:
          ----                                     ----
             STORAGE     =    43615624.0000               STORAGE     =           1.3130
       CONSTANT HEAD     =           0.0000         CONSTANT HEAD     =           0.0000
     HEAD DEP BOUNDS     =     5067678.0000       HEAD DEP BOUNDS     =           0.2990
      STREAM LEAKAGE     =   173063824.0000        STREAM LEAKAGE     =           9.5386
        UZF RECHARGE     =           0.0000          UZF RECHARGE     =           0.0000
               GW ET     =     8313709.5000                 GW ET     =           1.5490
     SURFACE LEAKAGE     =           0.0000       SURFACE LEAKAGE     =           0.0000
           AG WELLS      =   182963344.0000             AG WELLS      =          71.8153

               TOTAL OUT =   413024192.0000                 TOTAL OUT =          84.5149

                IN - OUT =       -1984.0000                  IN - OUT =       7.8583E-04

     PERCENT DISCREPANCY =          -0.00         PERCENT DISCREPANCY =           0.00






         TIME SUMMARY AT END OF TIME STEP   15 IN STRESS PERIOD    8
                    SECONDS     MINUTES      HOURS       DAYS        YEARS
                    -----------------------------------------------------------
   TIME STEP LENGTH  87667.      1461.1      24.352      1.0147     2.77799E-03
 STRESS PERIOD TIME 1.31500E+06  21917.      365.28      15.220     4.16698E-02
         TOTAL TIME 1.71814E+07 2.86357E+05  4772.6      198.86     0.54445    
1
 
 SOLVING FOR HEAD 
                                                   Max.-Head-Change                         Max.-Flux-Residual
  Residual-Control   Outer-Iter.   Inner-Iter.     Column Row Layer    Maximum-Head-Change  Column Row Layer    Maximum-Flux-Residual          L2-NORM 
          0                 1           2             4    7     1      -0.1440996383E+00       4    7    1        -0.7567130497E+01      0.1626851917E+02
          0                 2           2             5    8     1      -0.5108753203E-02       5    8    1        -0.2831222341E+00      0.7462526900E+00
          0                 3           2             4    7     1      -0.1225989889E-01       4    7    1        -0.6405406032E+00      0.1536053966E+01
          0                 4           2             4    7     1      -0.8809570197E-02       5    8    1        -0.4621861581E+00      0.1129801883E+01
          0                 5           2             4    7     1       0.8569305459E-03       5    8    1         0.4623152557E-01      0.1130028351E+00
          0                 6           1             4    7     1      -0.5835379787E-04       5    8    1        -0.3236721502E-02      0.7911416430E-02

    ------------------------------------------------
       NWT REQUIRED            6 OUTER ITERATIONS 
       AND A TOTAL OF         11 INNER ITERATIONS.
    ------------------------------------------------

 NO OUTPUT CONTROL FOR STRESS PERIOD    8   TIME STEP   16
 
 SOLVING FOR HEAD 
                                                   Max.-Head-Change                         Max.-Flux-Residual
  Residual-Control   Outer-Iter.   Inner-Iter.     Column Row Layer    Maximum-Head-Change  Column Row Layer    Maximum-Flux-Residual          L2-NORM 
          0                 1           2             4    7     1      -0.1423765964E+00       4    7    1        -0.7477737657E+01      0.1606981559E+02
          0                 2           2             5    8     1      -0.5335660204E-02       5    8    1        -0.2954503617E+00      0.7744048641E+00
          0                 3           2             4    7     1      -0.1224270784E-01       4    7    1        -0.6396474248E+00      0.1533376398E+01
          0                 4           2             4    7     1      -0.8811325650E-02       5    8    1        -0.4623085277E+00      0.1130071893E+01
          0                 5           2             4    7     1       0.8571013039E-03       5    8    1         0.4624374149E-01      0.1130298160E+00
          0                 6           1             4    7     1      -0.5836542599E-04       5    8    1        -0.3237575780E-02      0.7913302949E-02

    ------------------------------------------------
       NWT REQUIRED            6 OUTER ITERATIONS 
       AND A TOTAL OF         11 INNER ITERATIONS.
    ------------------------------------------------

 NO OUTPUT CONTROL FOR STRESS PERIOD    8   TIME STEP   17
 
 SOLVING FOR HEAD 
                                                   Max.-Head-Change                         Max.-Flux-Residual
  Residual-Control   Outer-Iter.   Inner-Iter.     Column Row Layer    Maximum-Head-Change  Column Row Layer    Maximum-Flux-Residual          L2-NORM 
          0                 1           2             4    7     1      -0.1406531518E+00       4    7    1        -0.7388207932E+01      0.1587835749E+02
          0                 2           2             5    8     1      -0.5552861096E-02       5    8    1        -0.3072411049E+00      0.8016352766E+00
          0                 3           2             4    7     1      -0.1222551313E-01       4    7    1        -0.6387528618E+00      0.1530772963E+01
          0                 4           2             4    7     1      -0.8813081742E-02       5    8    1        -0.4624255849E+00      0.1130334421E+01
          0                 5           2             4    7     1       0.8572721239E-03       5    8    1         0.4625542749E-01      0.1130560495E+00
          0                 6           1             4    7     1      -0.5837705789E-04       5    8    1        -0.3238393016E-02      0.7915137257E-02

    ------------------------------------------------
       NWT REQUIRED            6 OUTER ITERATIONS 
       AND A TOTAL OF         11 INNER ITERATIONS.
    ------------------------------------------------

 NO OUTPUT CONTROL FOR STRESS PERIOD    8   TIME STEP   18
 
 SOLVING FOR HEAD 
                                                   Max.-Head-Change                         Max.-Flux-Residual
  Residual-Control   Outer-Iter.   Inner-Iter.     Column Row Layer    Maximum-Head-Change  Column Row Layer    Maximum-Flux-Residual          L2-NORM 
          0                 1           2             4    7     1      -0.1389313623E+00       4    7    1        -0.7298657572E+01      0.1569373560E+02
          0                 2           2             5    8     1      -0.5760936564E-02       5    8    1        -0.3185269816E+00      0.8279800461E+00
          0                 3           2             4    7     1      -0.1220833527E-01       4    7    1        -0.6378580762E+00      0.1528240608E+01
          0                 4           2             4    7     1      -0.8814836375E-02       5    8    1        -0.4625376507E+00      0.1130589770E+01
          0                 5           2             4    7     1       0.8574428018E-03       5    8    1         0.4626661559E-01      0.1130815658E+00
          0                 6           1             4    7     1      -0.5838868067E-04       5    8    1        -0.3239175462E-02      0.7916921497E-02

    ------------------------------------------------
       NWT REQUIRED            6 OUTER ITERATIONS 
       AND A TOTAL OF         11 INNER ITERATIONS.
    ------------------------------------------------

 NO OUTPUT CONTROL FOR STRESS PERIOD    8   TIME STEP   19
 
 SOLVING FOR HEAD 
                                                   Max.-Head-Change                         Max.-Flux-Residual
  Residual-Control   Outer-Iter.   Inner-Iter.     Column Row Layer    Maximum-Head-Change  Column Row Layer    Maximum-Flux-Residual          L2-NORM 
          0                 1           2             4    7     1      -0.1372132595E+00       4    7    1        -0.7209200575E+01      0.1551558803E+02
          0                 2           2             5    8     1      -0.5960439205E-02       5    8    1        -0.3293388863E+00      0.8534758481E+00
          0                 3           2             4    7     1      -0.1219119453E-01       4    7    1        -0.6369642082E+00      0.1525776562E+01
          0                 4           2             4    7     1      -0.8816587478E-02       5    8    1        -0.4626450303E+00      0.1130838215E+01
          0                 5           2             4    7     1       0.8576131368E-03       5    8    1         0.4627733625E-01      0.1131063925E+00
          0                 6           1             4    7     1      -0.5840028003E-04       5    8    1        -0.3239925228E-02      0.7918657458E-02

    ------------------------------------------------
       NWT REQUIRED            6 OUTER ITERATIONS 
       AND A TOTAL OF         11 INNER ITERATIONS.
    ------------------------------------------------

 NO OUTPUT CONTROL FOR STRESS PERIOD    8   TIME STEP   20
 
 SOLVING FOR HEAD 
                                                   Max.-Head-Change                         Max.-Flux-Residual
  Residual-Control   Outer-Iter.   Inner-Iter.     Column Row Layer    Maximum-Head-Change  Column Row Layer    Maximum-Flux-Residual          L2-NORM 
          0                 1           2             4    7     1      -0.1355004363E+00       4    7    1        -0.7119927629E+01      0.1534355449E+02
          0                 2           2             5    8     1      -0.6151881118E-02       5    8    1        -0.3397054717E+00      0.8781587627E+00
          0                 3           2             4    7     1      -0.1217410679E-01       4    7    1        -0.6360721646E+00      0.1523377982E+01
          0                 4           2             4    7     1      -0.8818333424E-02       5    8    1        -0.4627480064E+00      0.1131080039E+01
          0                 5           2             4    7     1       0.8577829693E-03       5    8    1         0.4628761762E-01      0.1131305579E+00
          0                 6           1             4    7     1      -0.5841184483E-04       5    8    1        -0.3240644258E-02      0.7920347414E-02

    ------------------------------------------------
       NWT REQUIRED            6 OUTER ITERATIONS 
       AND A TOTAL OF         11 INNER ITERATIONS.
    ------------------------------------------------

 NO OUTPUT CONTROL FOR STRESS PERIOD    8   TIME STEP   21
 
 SOLVING FOR HEAD 
                                                   Max.-Head-Change                         Max.-Flux-Residual
  Residual-Control   Outer-Iter.   Inner-Iter.     Column Row Layer    Maximum-Head-Change  Column Row Layer    Maximum-Flux-Residual          L2-NORM 
          0                 1           2             4    7     1      -0.1337944739E+00       4    7    1        -0.7030928652E+01      0.1517731397E+02
          0                 2           2             5    8     1      -0.6335723733E-02       5    8    1        -0.3496525062E+00      0.9020627425E+00
          0                 3           2             4    7     1      -0.1215708782E-01       4    7    1        -0.6351828440E+00      0.1521042336E+01
          0                 4           2             4    7     1      -0.8820072602E-02       5    8    1        -0.4628468336E+00      0.1131315496E+01
          0                 5           2             4    7     1       0.8579521441E-03       5    8    1         0.4629748514E-01      0.1131540872E+00
          0                 6           1             4    7     1      -0.5842336502E-04       5    8    1        -0.3241334390E-02      0.7921992679E-02

    ------------------------------------------------
       NWT REQUIRED            6 OUTER ITERATIONS 
       AND A TOTAL OF         11 INNER ITERATIONS.
    ------------------------------------------------

 NO OUTPUT CONTROL FOR STRESS PERIOD    8   TIME STEP   22
 
 SOLVING FOR HEAD 
                                                   Max.-Head-Change                         Max.-Flux-Residual
  Residual-Control   Outer-Iter.   Inner-Iter.     Column Row Layer    Maximum-Head-Change  Column Row Layer    Maximum-Flux-Residual          L2-NORM 
          0                 1           2             4    7     1      -0.1320969546E+00       4    7    1        -0.6942292920E+01      0.1501657803E+02
          0                 2           2             5    8     1      -0.6512409271E-02       5    8    1        -0.3592047004E+00      0.9252227070E+00
          0                 3           2             4    7     1      -0.1214015340E-01       4    7    1        -0.6342971393E+00      0.1518767199E+01
          0                 4           2             4    7     1      -0.8821803395E-02       5    8    1        -0.4629417560E+00      0.1131544830E+01
          0                 5           2             4    7     1       0.8581205028E-03       5    8    1         0.4630696309E-01      0.1131770048E+00
          0                 6           1             4    7     1      -0.5843482960E-04       5    8    1        -0.3241997291E-02      0.7923595325E-02

    ------------------------------------------------
       NWT REQUIRED            6 OUTER ITERATIONS 
       AND A TOTAL OF         11 INNER ITERATIONS.
    ------------------------------------------------

 NO OUTPUT CONTROL FOR STRESS PERIOD    8   TIME STEP   23
 
 SOLVING FOR HEAD 
                                                   Max.-Head-Change                         Max.-Flux-Residual
  Residual-Control   Outer-Iter.   Inner-Iter.     Column Row Layer    Maximum-Head-Change  Column Row Layer    Maximum-Flux-Residual          L2-NORM 
          0                 1           2             4    7     1      -0.1304091854E+00       4    7    1        -0.6854095158E+01      0.1486106500E+02
          0                 2           2             5    8     1      -0.6682363596E-02       5    8    1        -0.3683857680E+00      0.9476701207E+00
          0                 3           2             4    7     1      -0.1212331655E-01       4    7    1        -0.6334157979E+00      0.1516550253E+01
          0                 4           2             4    7     1      -0.8823524469E-02       5    8    1        -0.4630330079E+00      0.1131768272E+01
          0                 5           2             4    7     1       0.8582879164E-03       5    8    1         0.4631607490E-01      0.1131993339E+00
          0                 6           1             4    7     1      -0.5844622979E-04       5    8    1        -0.3242634574E-02      0.7925156920E-02

    ------------------------------------------------
       NWT REQUIRED            6 OUTER ITERATIONS 
       AND A TOTAL OF         11 INNER ITERATIONS.
    ------------------------------------------------

 NO OUTPUT CONTROL FOR STRESS PERIOD    8   TIME STEP   24
 
 SOLVING FOR HEAD 
                                                   Max.-Head-Change                         Max.-Flux-Residual
  Residual-Control   Outer-Iter.   Inner-Iter.     Column Row Layer    Maximum-Head-Change  Column Row Layer    Maximum-Flux-Residual          L2-NORM 
          0                 1           2             4    7     1      -0.1287323490E+00       4    7    1        -0.6766403125E+01      0.1471051483E+02
          0                 2           2             5    8     1      -0.6845953311E-02       5    8    1        -0.3772162226E+00      0.9694371945E+00
          0                 3           2             4    7     1      -0.1210658906E-01       4    7    1        -0.6325394972E+00      0.1514389220E+01
          0                 4           2             4    7     1      -0.8825234617E-02       5    8    1        -0.4631207916E+00      0.1131986052E+01
          0                 5           2             4    7     1       0.8584542672E-03       5    8    1         0.4632484069E-01      0.1132210974E+00
          0                 6           1             4    7     1      -0.5845755768E-04       5    8    1        -0.3243247684E-02      0.7926678916E-02

    ------------------------------------------------
       NWT REQUIRED            6 OUTER ITERATIONS 
       AND A TOTAL OF         11 INNER ITERATIONS.
    ------------------------------------------------

 NO OUTPUT CONTROL FOR STRESS PERIOD    8   TIME STEP   25
 
 SOLVING FOR HEAD 
                                                   Max.-Head-Change                         Max.-Flux-Residual
  Residual-Control   Outer-Iter.   Inner-Iter.     Column Row Layer    Maximum-Head-Change  Column Row Layer    Maximum-Flux-Residual          L2-NORM 
          0                 1           2             4    7     1      -0.1270673813E+00       4    7    1        -0.6679270835E+01      0.1456468614E+02
          0                 2           2             5    8     1      -0.7003548781E-02       5    8    1        -0.3857166409E+00      0.9905529350E+00
          0                 3           2             4    7     1      -0.1208998027E-01       4    7    1        -0.6316687775E+00      0.1512282021E+01
          0                 4           2             4    7     1      -0.8826932881E-02       5    8    1        -0.4632053108E+00      0.1132198380E+01
          0                 5           2             4    7     1       0.8586194618E-03       5    8    1         0.4633328080E-01      0.1132423163E+00
          0                 6           1             4    7     1      -0.5846880700E-04       5    8    1        -0.3243838033E-02      0.7928163003E-02

    ------------------------------------------------
       NWT REQUIRED            6 OUTER ITERATIONS 
       AND A TOTAL OF         11 INNER ITERATIONS.
    ------------------------------------------------

 NO OUTPUT CONTROL FOR STRESS PERIOD    8   TIME STEP   26
 
 SOLVING FOR HEAD 
                                                   Max.-Head-Change                         Max.-Flux-Residual
  Residual-Control   Outer-Iter.   Inner-Iter.     Column Row Layer    Maximum-Head-Change  Column Row Layer    Maximum-Flux-Residual          L2-NORM 
          0                 1           2             4    7     1      -0.1254155291E+00       4    7    1        -0.6592768719E+01      0.1442337673E+02
          0                 2           2             5    8     1      -0.7155465633E-02       5    8    1        -0.3939046598E+00      0.1011045449E+01
          0                 3           2             4    7     1      -0.1207350261E-01       4    7    1        -0.6308043434E+00      0.1510226831E+01
          0                 4           2             4    7     1      -0.8828617988E-02       5    8    1        -0.4632867395E+00      0.1132405440E+01
          0                 5           2             4    7     1       0.8587833760E-03       5    8    1         0.4634141258E-01      0.1132630089E+00
          0                 6           1             4    7     1      -0.5847996875E-04       5    8    1        -0.3244406810E-02      0.7929610169E-02

    ------------------------------------------------
       NWT REQUIRED            6 OUTER ITERATIONS 
       AND A TOTAL OF         11 INNER ITERATIONS.
    ------------------------------------------------

 NO OUTPUT CONTROL FOR STRESS PERIOD    8   TIME STEP   27
 
 SOLVING FOR HEAD 
                                                   Max.-Head-Change                         Max.-Flux-Residual
  Residual-Control   Outer-Iter.   Inner-Iter.     Column Row Layer    Maximum-Head-Change  Column Row Layer    Maximum-Flux-Residual          L2-NORM 
          0                 1           2             4    7     1      -0.1237775082E+00       4    7    1        -0.6506939501E+01      0.1428634622E+02
          0                 2           2             5    8     1      -0.7302027041E-02       5    8    1        -0.4017982127E+00      0.1030942056E+01
          0                 3           2             4    7     1      -0.1205716321E-01       4    7    1        -0.6299466218E+00      0.1508221486E+01
          0                 4           2             4    7     1      -0.8830289205E-02       5    8    1        -0.4633652550E+00      0.1132607450E+01
          0                 5           2             4    7     1       0.8589459402E-03       5    8    1         0.4634925372E-01      0.1132831971E+00
          0                 6           1             4    7     1      -0.5849103879E-04       5    8    1        -0.3244955271E-02      0.7931022107E-02

    ------------------------------------------------
       NWT REQUIRED            6 OUTER ITERATIONS 
       AND A TOTAL OF         11 INNER ITERATIONS.
    ------------------------------------------------

 NO OUTPUT CONTROL FOR STRESS PERIOD    8   TIME STEP   28
 
 SOLVING FOR HEAD 
                                                   Max.-Head-Change                         Max.-Flux-Residual
  Residual-Control   Outer-Iter.   Inner-Iter.     Column Row Layer    Maximum-Head-Change  Column Row Layer    Maximum-Flux-Residual          L2-NORM 
          0                 1           2             4    7     1      -0.1221542262E+00       4    7    1        -0.6421834897E+01      0.1415343338E+02
          0                 2           2             5    8     1      -0.7443504543E-02       5    8    1        -0.4094124900E+00      0.1050268841E+01
          0                 3           2             4    7     1      -0.1204097113E-01       4    7    1        -0.6290961302E+00      0.1506264426E+01
          0                 4           2             4    7     1      -0.8831945605E-02       5    8    1        -0.4634410071E+00      0.1132804570E+01
          0                 5           2             4    7     1       0.8591070627E-03       5    8    1         0.4635681915E-01      0.1133028967E+00
          0                 6           1             4    7     1      -0.5850201084E-04       5    8    1        -0.3245484478E-02      0.7932399927E-02

    ------------------------------------------------
       NWT REQUIRED            6 OUTER ITERATIONS 
       AND A TOTAL OF         11 INNER ITERATIONS.
    ------------------------------------------------

 NO OUTPUT CONTROL FOR STRESS PERIOD    8   TIME STEP   29
 
 SOLVING FOR HEAD 
                                                   Max.-Head-Change                         Max.-Flux-Residual
  Residual-Control   Outer-Iter.   Inner-Iter.     Column Row Layer    Maximum-Head-Change  Column Row Layer    Maximum-Flux-Residual          L2-NORM 
          0                 1           2             4    7     1      -0.1205463634E+00       4    7    1        -0.6337494656E+01      0.1402443810E+02
          0                 2           2             5    8     1      -0.7580195212E-02       5    8    1        -0.4167639212E+00      0.1069049625E+01
          0                 3           2             4    7     1      -0.1202493313E-01       4    7    1        -0.6282532665E+00      0.1504353799E+01
          0                 4           2             4    7     1      -0.8833586489E-02       5    8    1        -0.4635141585E+00      0.1132996986E+01
          0                 5           2             4    7     1       0.8592666754E-03       5    8    1         0.4636412509E-01      0.1133221265E+00
          0                 6           1             4    7     1      -0.5851287947E-04       5    8    1        -0.3245995534E-02      0.7933744949E-02

    ------------------------------------------------
       NWT REQUIRED            6 OUTER ITERATIONS 
       AND A TOTAL OF         11 INNER ITERATIONS.
    ------------------------------------------------

 NO OUTPUT CONTROL FOR STRESS PERIOD    8   TIME STEP   30



 STREAM LISTING     PERIOD      8   STEP       30

 LAYER ROW COL. STREAM  RCH.  FLOW INTO     FLOW TO   FLOW OUT OF   OVRLND.     DIRECT     STREAM       STREAM     STREAM     STREAM   STREAMBED  STREAMBED
                SEG.NO.  NO.  STRM. RCH.    AQUIFER    STRM. RCH.    RUNOFF     PRECIP       ET          HEAD       DEPTH      WIDTH   CONDCTNC.   GRADIENT

   1    1    1     1     1    7.4999E+01  4.2231E-01   7.4577E+01  0.000E+00  0.000E+00  0.000E+00  1.09475E+03  1.698E+00  1.998E+01  8.990E-02  1.566E+00
   1    2    2     1     2    7.4577E+01  6.5422E-01   7.3923E+01  0.000E+00  0.000E+00  0.000E+00  1.08975E+03  1.692E+00  1.992E+01  1.394E-01  1.564E+00
   1    3    3     1     3    7.3923E+01  5.5813E-01   7.3365E+01  0.000E+00  0.000E+00  0.000E+00  1.08410E+03  1.685E+00  1.985E+01  1.191E-01  1.562E+00
   1    3    4     1     4    7.3365E+01  5.1411E-01   7.2851E+01  0.000E+00  0.000E+00  0.000E+00  1.07909E+03  1.679E+00  1.980E+01  1.099E-01  1.560E+00
   1    4    5     2     1    7.0851E+01  4.0967E-01   7.0441E+01  0.000E+00  0.000E+00  0.000E+00  1.07419E+03  2.252E+00  1.200E+01  7.800E-02  1.751E+00
   1    5    6     2     2    7.0441E+01  3.1471E-01   7.0126E+01  0.000E+00  0.000E+00  0.000E+00  1.06875E+03  2.245E+00  1.200E+01  6.000E-02  1.748E+00
   1    6    6     2     3    7.0126E+01  3.1435E-01   6.9812E+01  0.000E+00  0.000E+00  0.000E+00  1.06403E+03  2.239E+00  1.200E+01  6.000E-02  1.746E+00
   1    7    6     2     4    6.9812E+01  3.1399E-01   6.9498E+01  0.000E+00  0.000E+00  0.000E+00  1.05931E+03  2.233E+00  1.200E+01  6.000E-02  1.744E+00
   1    8    6     2     5    6.9498E+01  3.1363E-01   6.9184E+01  0.000E+00  0.000E+00  0.000E+00  1.05459E+03  2.227E+00  1.200E+01  6.000E-02  1.742E+00
   1    3    5     3     1    2.0000E+00  2.8252E-01   1.7175E+00  0.000E+00  0.000E+00  0.000E+00  1.07555E+03  1.909E+00  9.636E+00  7.227E-02  1.955E+00
   1    3    6     3     2    1.7175E+00  2.4905E-01   1.4684E+00  0.000E+00  0.000E+00  0.000E+00  1.07264E+03  1.727E+00  8.909E+00  6.682E-02  1.864E+00
   1    3    7     3     3    1.4684E+00  1.9718E-01   1.2712E+00  0.000E+00  0.000E+00  0.000E+00  1.06987E+03  1.555E+00  8.218E+00  5.547E-02  1.777E+00
   1    4    8     3     4    1.2712E+00  2.2567E-01   1.0456E+00  0.000E+00  0.000E+00  0.000E+00  1.06682E+03  1.364E+00  7.455E+00  6.709E-02  1.682E+00
   1    5    8     3     5    1.0456E+00  1.5790E-01   8.8768E-01  0.000E+00  0.000E+00  0.000E+00  1.06362E+03  1.164E+00  6.655E+00  4.991E-02  1.582E+00
   1    6    8     3     6    8.8768E-01  5.5980E-02   8.3170E-01  0.000E+00  0.000E+00  0.000E+00  1.06158E+03  1.036E+00  6.145E+00  1.844E-02  1.518E+00
   1    5   10     4     1    1.0000E+01  9.0919E-02   9.9091E+00  0.000E+00  0.000E+00  0.000E+00  1.07836E+03  6.368E-01  1.000E+01  2.500E-02  1.212E+00
   1    5    9     4     2    9.9091E+00  1.8158E-01   9.7275E+00  0.000E+00  0.000E+00  0.000E+00  1.07154E+03  6.315E-01  1.000E+01  5.000E-02  1.211E+00
   1    6    8     4     3    9.7275E+00  1.2689E-01   9.6006E+00  0.000E+00  0.000E+00  0.000E+00  1.06381E+03  6.256E-01  1.000E+01  3.500E-02  1.209E+00
   1    6    8     5     1    1.0432E+01  2.2686E-01   1.0205E+01  0.000E+00  0.000E+00  0.000E+00  1.05868E+03  6.790E-01  1.542E+01  6.166E-02  1.226E+00
   1    7    7     5     2    1.0205E+01  2.7894E-01   9.9265E+00  0.000E+00  0.000E+00  0.000E+00  1.05417E+03  6.732E-01  1.519E+01  7.594E-02  1.224E+00
   1    8    7     5     3    9.9265E+00  1.9221E-01   9.7343E+00  0.000E+00  0.000E+00  0.000E+00  1.04992E+03  6.676E-01  1.497E+01  5.241E-02  1.223E+00
   1    8    6     5     4    9.7343E+00  1.3577E-01   9.5985E+00  0.000E+00  0.000E+00  0.000E+00  1.04691E+03  6.637E-01  1.482E+01  3.706E-02  1.221E+00
   1    9    6     6     1    7.8783E+01  3.2569E-01   7.8457E+01  0.000E+00  0.000E+00  0.000E+00  1.04516E+03  2.428E+00  1.200E+01  6.000E-02  1.809E+00
   1   10    7     6     2    7.8457E+01  3.2533E-01   7.8132E+01  0.000E+00  0.000E+00  0.000E+00  1.04060E+03  2.422E+00  1.200E+01  6.000E-02  1.807E+00
   1   11    7     6     3    7.8132E+01  3.2497E-01   7.7807E+01  0.000E+00  0.000E+00  0.000E+00  1.03605E+03  2.416E+00  1.200E+01  6.000E-02  1.805E+00
   1   12    7     6     4    7.7807E+01  3.2461E-01   7.7482E+01  0.000E+00  0.000E+00  0.000E+00  1.03150E+03  2.410E+00  1.200E+01  6.000E-02  1.803E+00
   1   13    7     6     5    7.7482E+01  2.5721E-02   7.7457E+01  0.000E+00  0.000E+00  0.000E+00  1.02832E+03  2.407E+00  1.200E+01  2.400E-02  3.572E-01
   1   14    9     7     1    1.5000E+02  1.3316E+00   1.4867E+02  0.000E+00  0.000E+00  0.000E+00  1.03987E+03  2.288E+00  5.529E+01  5.593E-01  7.936E-01
   1   13    8     7     2    1.4867E+02  1.7983E+00   1.4687E+02  0.000E+00  0.000E+00  0.000E+00  1.03478E+03  2.279E+00  5.526E+01  6.148E-01  9.751E-01
   1   13    7     7     3    1.4687E+02  1.3661E+00   1.4550E+02  0.000E+00  0.000E+00  0.000E+00  1.02969E+03  2.271E+00  5.522E+01  5.585E-01  8.154E-01
   1   13    6     8     1    2.2296E+02  1.0158E+00   2.2194E+02  0.000E+00  0.000E+00  0.000E+00  1.02514E+03  3.265E+00  4.735E+01  4.825E-01  7.018E-01
   1   13    5     8     2    2.2194E+02  2.0176E-01   2.2174E+02  0.000E+00  0.000E+00  0.000E+00  1.01889E+03  3.262E+00  4.730E+01  4.820E-01  1.395E-01
   1   13    4     8     3    2.2174E+02 -1.9143E+00   2.2366E+02  0.000E+00  0.000E+00  0.000E+00  1.01264E+03  3.267E+00  4.737E+01  4.827E+00 -1.322E-01
   1   13    3     8     4    2.2366E+02 -3.0672E+00   2.2672E+02  0.000E+00  0.000E+00  0.000E+00  1.00641E+03  3.280E+00  4.757E+01  4.847E+00 -2.109E-01
   1   13    2     8     5    2.2672E+02 -2.5089E+00   2.2923E+02  0.000E+00  0.000E+00  0.000E+00  1.00017E+03  3.296E+00  4.779E+01  4.870E+00 -1.717E-01
   1   13    1     8     6    2.2923E+02 -1.9837E+00   2.3122E+02  0.000E+00  0.000E+00  0.000E+00  9.95183E+02  3.308E+00  4.796E+01  2.933E+00 -2.255E-01





UNSATURATED ZONE PACKAGE VOLUMETRIC BUDGET FOR  TIME STEP    30 STRESS PERIOD    8
  ------------------------------------------------------------------------------



     CUMULATIVE VOLUMES      L**3       RATES FOR THIS TIME STEP      L**3/T
     ------------------                 ------------------------

           IN:                                      IN:
           ---                                      ---
        INFILTRATION =   293076000.2254          INFILTRATION =          72.6628

          OUT:                                     OUT:
          ----                                     ----
              UZF ET =   255075290.2494                UZF ET =          58.2420
        UZF RECHARGE =       73224.0000          UZF RECHARGE =       0.0000E+00

            IN - OUT =    37927485.9760              IN - OUT =          14.4207

          STORAGE:                                 STORAGE:
          --------                                 --------
      STORAGE CHANGE =    37927487.9316        STORAGE CHANGE =          14.4207

 PERCENT DISCREPANCY IS DIFFERENCE BETWEEN IN-OUT MINUS CHANGE IN STORAGE
 DIVIDED BY THE AVERAGE OF IN AND OUT TIMES 100

 PERCENT DISCREPANCY =           0.00     PERCENT DISCREPANCY =           0.00






1
  VOLUMETRIC BUDGET FOR AGRICULTURAL FIELDS AT  END OF TIME STEP   30, STRESS PERIOD   8
  ------------------------------------------------------------------------------

     CUMULATIVE VOLUMES      L**3       RATES FOR THIS TIME STEP      L**3/T
     ------------------                 ------------------------

           IN:                                      IN:
           ---                                      ---
               AG WELLS  =   277400448.0000                 AG WELLS  =          71.8153
      DIVERSION SEGMENTS =           0.0000        DIVERSION SEGMENTS =           0.0000
           GW IRRIGATION =           0.0000             GW IRRIGATION =           0.0000
           SW IRRIGATION =           0.0000             SW IRRIGATION =           0.0000
        SYSTEM LOSSES GW =           0.0000          SYSTEM LOSSES GW =           0.0000
        SYSTEM LOSSES SW =           0.0000          SYSTEM LOSSES SW =           0.0000

                TOTAL IN =   277400448.0000                  TOTAL IN =          71.8153

          OUT:                                     OUT:
          ----                                     ----
               AG WELLS  =           0.0000                 AG WELLS  =           0.0000
      DIVERSION SEGMENTS =           0.0000        DIVERSION SEGMENTS =           0.0000
           GW IRRIGATION =   277400448.0000             GW IRRIGATION =          71.8153
           SW IRRIGATION =           0.0000             SW IRRIGATION =           0.0000
        SYSTEM LOSSES GW =           0.0000          SYSTEM LOSSES GW =           0.0000
        SYSTEM LOSSES SW =           0.0000          SYSTEM LOSSES SW =           0.0000

               TOTAL OUT =   277400448.0000                 TOTAL OUT =          71.8153

                IN - OUT =           0.0000                  IN - OUT =           0.0000

     PERCENT DISCREPANCY =           0.00         PERCENT DISCREPANCY =           0.00



1
  VOLUMETRIC BUDGET FOR ENTIRE MODEL AT END OF TIME STEP   30, STRESS PERIOD   8
  ------------------------------------------------------------------------------

     CUMULATIVE VOLUMES      L**3       RATES FOR THIS TIME STEP      L**3/T
     ------------------                 ------------------------

           IN:                                      IN:
           ---                                      ---
             STORAGE     =   281538880.0000               STORAGE     =          70.7380
       CONSTANT HEAD     =           0.0000         CONSTANT HEAD     =           0.0000
     HEAD DEP BOUNDS     =     5279910.5000       HEAD DEP BOUNDS     =           0.2855
      STREAM LEAKAGE     =   237080176.0000        STREAM LEAKAGE     =          13.2565
        UZF RECHARGE     =       73223.9531          UZF RECHARGE     =           0.0000
               GW ET     =           0.0000                 GW ET     =           0.0000
     SURFACE LEAKAGE     =           0.0000       SURFACE LEAKAGE     =           0.0000
           AG WELLS      =           0.0000             AG WELLS      =           0.0000

                TOTAL IN =   523972160.0000                  TOTAL IN =          84.2800

          OUT:                                     OUT:
          ----                                     ----
             STORAGE     =    45222984.0000               STORAGE     =           1.1593
       CONSTANT HEAD     =           0.0000         CONSTANT HEAD     =           0.0000
     HEAD DEP BOUNDS     =     5460585.5000       HEAD DEP BOUNDS     =           0.2986
      STREAM LEAKAGE     =   185553904.0000        STREAM LEAKAGE     =           9.4741
        UZF RECHARGE     =           0.0000          UZF RECHARGE     =           0.0000
               GW ET     =    10335168.0000                 GW ET     =           1.5318
     SURFACE LEAKAGE     =           0.0000       SURFACE LEAKAGE     =           0.0000
           AG WELLS      =   277400448.0000             AG WELLS      =          71.8153

               TOTAL OUT =   523973088.0000                 TOTAL OUT =          84.2792

                IN - OUT =        -928.0000                  IN - OUT =       7.8583E-04

     PERCENT DISCREPANCY =          -0.00         PERCENT DISCREPANCY =           0.00






         TIME SUMMARY AT END OF TIME STEP   30 IN STRESS PERIOD    8
                    SECONDS     MINUTES      HOURS       DAYS        YEARS
                    -----------------------------------------------------------
   TIME STEP LENGTH  87667.      1461.1      24.352      1.0147     2.77799E-03
 STRESS PERIOD TIME 2.63000E+06  43833.      730.56      30.440     8.33397E-02
         TOTAL TIME 1.84964E+07 3.08274E+05  5137.9      214.08     0.58612    
1
1
                            STRESS PERIOD NO.    9, LENGTH =   2630000.    
                            -----------------------------------------------

                              NUMBER OF TIME STEPS =    30

                               MULTIPLIER FOR DELT =     1.000

                            INITIAL TIME STEP SIZE =   87666.66    

 REUSING NON-PARAMETER GHB CELLS FROM LAST STRESS PERIOD

      2 GHB CELLS

 REUSING STREAM SEGMENT DATA FROM LAST STRESS PERIOD



            AREAL INFILTRATION RATE
 READING ON UNIT   19 WITH FORMAT: (FREE)              

            1           2           3           4           5           6           7           8           9          10
 ........................................................................................................................
   1   1.0000E-10  2.0000E-10   0.000       0.000       0.000       0.000       0.000       0.000       0.000       0.000    
   2   2.0000E-10  1.0000E-10  2.0000E-10   0.000       0.000      8.0000E-10  8.0000E-10  5.0000E-10   0.000       0.000    
   3    0.000      5.0000E-10  1.0000E-10  1.0000E-10  8.0000E-10  8.0000E-10  5.0000E-10  5.0000E-10   0.000       0.000    
   4   8.0000E-10  5.0000E-10  1.0000E-10  1.0000E-10  1.0000E-10  1.0000E-10  1.0000E-10  1.0000E-10  2.0000E-10   0.000    
   5   8.0000E-10  5.0000E-10  1.0000E-10  1.0000E-10  1.0000E-10  1.0000E-10  1.0000E-10  1.0000E-10  1.0000E-10  1.0000E-10
   6   8.0000E-10  5.0000E-10  5.0000E-10  2.0000E-10  2.0000E-10  1.0000E-10  1.0000E-10  1.0000E-10  1.0000E-10  5.0000E-10
   7   8.0000E-10  5.0000E-10  5.0000E-10  2.0000E-10  2.0000E-10  1.0000E-10  1.0000E-10  2.0000E-10  2.0000E-10   0.000    
   8    0.000      5.0000E-10  5.0000E-10  2.0000E-10  2.0000E-10  1.0000E-10  1.0000E-10  2.0000E-10  5.0000E-10   0.000    
   9    0.000      5.0000E-10  5.0000E-10  2.0000E-10  2.0000E-10  1.0000E-10  1.0000E-10  2.0000E-10  5.0000E-10   0.000    
  10    0.000      5.0000E-10  5.0000E-10  2.0000E-10  2.0000E-10  1.0000E-10  1.0000E-10  2.0000E-10  5.0000E-10  8.0000E-10
  11    0.000      1.0000E-10  1.0000E-10  1.0000E-10  1.0000E-10  1.0000E-10  1.0000E-10  2.0000E-10  5.0000E-10   0.000    
  12   1.0000E-10  1.0000E-10  1.0000E-10  1.0000E-10  1.0000E-10  1.0000E-10  1.0000E-10  1.0000E-10  2.0000E-10   0.000    
  13   1.0000E-10  1.0000E-10  2.0000E-10  2.0000E-10  2.0000E-10  2.0000E-10  2.0000E-10  1.0000E-10  1.0000E-10   0.000    
  14    0.000      2.0000E-10  5.0000E-10  5.0000E-10  5.0000E-10  5.0000E-10  5.0000E-10  2.0000E-10  1.0000E-10   0.000    
  15    0.000       0.000      8.0000E-10  8.0000E-10  8.0000E-10  8.0000E-10   0.000       0.000       0.000       0.000    

                  ET RATE =  3.250000E-07

 USING ET EXTINCTION DEPTH FROM PREVIOUS STRESS PERIOD. CURRENT PERIOD IS:       9

 USING EXTINCTION WATER CONTENT FROM PREVIOUS STRESS PERIOD. CURRENT PERIOD IS:       9

 USING AIR ENTRY PRESSURE FROM PREVIOUS STRESS PERIOD. CURRENT PERIOD IS:       9

 USING ROOT PRESSURE HEAD FROM PREVIOUS STRESS PERIOD. CURRENT PERIOD IS:       9

 USING ROOT ACTIVITY FROM PREVIOUS STRESS PERIOD. CURRENT PERIOD IS:       9

 PROCESSING AG STRESS PERIOD DATA

 READING AG STRESS PERIOD DATA

 READING IRRIGATION WELL

 END PROCESSING AG STRESS PERIOD DATA OPTIONS
 
 SOLVING FOR HEAD 
                                                   Max.-Head-Change                         Max.-Flux-Residual
  Residual-Control   Outer-Iter.   Inner-Iter.     Column Row Layer    Maximum-Head-Change  Column Row Layer    Maximum-Flux-Residual          L2-NORM 
          0                 1           2             4    7     1      -0.8303948462E-01       4    7    1        -0.4378954046E+01      0.1032888002E+02
          0                 2           2             4    7     1       0.8077292821E-02       4    7    1         0.4378828242E+00      0.1032846501E+01
          0                 3           2             4    7     1      -0.5500355022E-03       4    7    1        -0.3065192996E-01      0.7229630941E-01
          0                 4           1             4    7     1       0.2188641916E-04       4    7    1         0.1253665131E-02      0.2956726144E-02

    ------------------------------------------------
       NWT REQUIRED            4 OUTER ITERATIONS 
       AND A TOTAL OF          7 INNER ITERATIONS.
    ------------------------------------------------

 NO OUTPUT CONTROL FOR STRESS PERIOD    9   TIME STEP    1
 
 SOLVING FOR HEAD 
                                                   Max.-Head-Change                         Max.-Flux-Residual
  Residual-Control   Outer-Iter.   Inner-Iter.     Column Row Layer    Maximum-Head-Change  Column Row Layer    Maximum-Flux-Residual          L2-NORM 
          0                 1           2             4    7     1      -0.8184925858E-01       4    7    1        -0.4314565865E+01      0.1025881686E+02
          0                 2           2             4    7     1       0.7961524196E-02       4    7    1         0.4314445515E+00      0.1025846024E+01
          0                 3           2             4    7     1      -0.5421520108E-03       4    7    1        -0.3020124552E-01      0.7180677260E-01
          0                 4           1             4    7     1       0.2157272822E-04       4    7    1         0.1235232142E-02      0.2936703603E-02

    ------------------------------------------------
       NWT REQUIRED            4 OUTER ITERATIONS 
       AND A TOTAL OF          7 INNER ITERATIONS.
    ------------------------------------------------

 NO OUTPUT CONTROL FOR STRESS PERIOD    9   TIME STEP    2
 
 SOLVING FOR HEAD 
                                                   Max.-Head-Change                         Max.-Flux-Residual
  Residual-Control   Outer-Iter.   Inner-Iter.     Column Row Layer    Maximum-Head-Change  Column Row Layer    Maximum-Flux-Residual          L2-NORM 
          0                 1           2             4    7     1      -0.8070567800E-01       4    7    1        -0.4252720261E+01      0.1019133704E+02
          0                 2           2             4    7     1       0.7850292465E-02       4    7    1         0.4252605063E+00      0.1019105196E+01
          0                 3           2             4    7     1      -0.5345774693E-03       4    7    1        -0.2976835730E-01      0.7133559723E-01
          0                 4           1             4    7     1       0.2127133038E-04       4    7    1         0.1217527013E-02      0.2917536943E-02

    ------------------------------------------------
       NWT REQUIRED            4 OUTER ITERATIONS 
       AND A TOTAL OF          7 INNER ITERATIONS.
    ------------------------------------------------

 NO OUTPUT CONTROL FOR STRESS PERIOD    9   TIME STEP    3
 
 SOLVING FOR HEAD 
                                                   Max.-Head-Change                         Max.-Flux-Residual
  Residual-Control   Outer-Iter.   Inner-Iter.     Column Row Layer    Maximum-Head-Change  Column Row Layer    Maximum-Flux-Residual          L2-NORM 
          0                 1           2             4    7     1      -0.7960657710E-01       4    7    1        -0.4193300570E+01      0.1012737709E+02
          0                 2           2             4    7     1       0.7743386982E-02       4    7    1         0.4193190239E+00      0.1012714240E+01
          0                 3           2             4    7     1      -0.5272975327E-03       4    7    1        -0.2935244875E-01      0.7088859314E-01
          0                 4           1             4    7     1       0.2098165483E-04       4    7    1         0.1200516322E-02      0.2899241601E-02

    ------------------------------------------------
       NWT REQUIRED            4 OUTER ITERATIONS 
       AND A TOTAL OF          7 INNER ITERATIONS.
    ------------------------------------------------

 NO OUTPUT CONTROL FOR STRESS PERIOD    9   TIME STEP    4
 
 SOLVING FOR HEAD 
                                                   Max.-Head-Change                         Max.-Flux-Residual
  Residual-Control   Outer-Iter.   Inner-Iter.     Column Row Layer    Maximum-Head-Change  Column Row Layer    Maximum-Flux-Residual          L2-NORM 
          0                 1           2             4    7     1      -0.7854987013E-01       4    7    1        -0.4136194492E+01      0.1006647407E+02
          0                 2           2             4    7     1       0.7640604882E-02       4    7    1         0.4136088758E+00      0.1006627578E+01
          0                 3           2             4    7     1      -0.5202983879E-03       4    7    1        -0.2895273385E-01      0.7046287430E-01
          0                 4           1             4    7     1       0.2070315288E-04       4    7    1         0.1184168007E-02      0.2881860000E-02

    ------------------------------------------------
       NWT REQUIRED            4 OUTER ITERATIONS 
       AND A TOTAL OF          7 INNER ITERATIONS.
    ------------------------------------------------

 NO OUTPUT CONTROL FOR STRESS PERIOD    9   TIME STEP    5
 
 SOLVING FOR HEAD 
                                                   Max.-Head-Change                         Max.-Flux-Residual
  Residual-Control   Outer-Iter.   Inner-Iter.     Column Row Layer    Maximum-Head-Change  Column Row Layer    Maximum-Flux-Residual          L2-NORM 
          0                 1           2             4    7     1      -0.7753343646E-01       4    7    1        -0.4081286590E+01      0.1000826667E+02
          0                 2           2             4    7     1       0.7541739910E-02       4    7    1         0.4081185200E+00      0.1000809549E+01
          0                 3           2             4    7     1      -0.5135659881E-03       4    7    1        -0.2856840467E-01      0.7005583112E-01
          0                 4           1             4    7     1       0.2043526477E-04       4    7    1         0.1168448938E-02      0.2865236835E-02

    ------------------------------------------------
       NWT REQUIRED            4 OUTER ITERATIONS 
       AND A TOTAL OF          7 INNER ITERATIONS.
    ------------------------------------------------

 NO OUTPUT CONTROL FOR STRESS PERIOD    9   TIME STEP    6
 
 SOLVING FOR HEAD 
                                                   Max.-Head-Change                         Max.-Flux-Residual
  Residual-Control   Outer-Iter.   Inner-Iter.     Column Row Layer    Maximum-Head-Change  Column Row Layer    Maximum-Flux-Residual          L2-NORM 
          0                 1           2             4    7     1      -0.7655523524E-01       4    7    1        -0.4028466910E+01      0.9952466219E+01
          0                 2           2             4    7     1       0.7446593567E-02       4    7    1         0.4028369624E+00      0.9952315995E+00
          0                 3           2             4    7     1      -0.5070868163E-03       4    7    1        -0.2819869160E-01      0.6966553247E-01
          0                 4           1             4    7     1       0.2017745251E-04       4    7    1         0.1153327659E-02      0.2849276920E-02

    ------------------------------------------------
       NWT REQUIRED            4 OUTER ITERATIONS 
       AND A TOTAL OF          7 INNER ITERATIONS.
    ------------------------------------------------

 NO OUTPUT CONTROL FOR STRESS PERIOD    9   TIME STEP    7
 
 SOLVING FOR HEAD 
                                                   Max.-Head-Change                         Max.-Flux-Residual
  Residual-Control   Outer-Iter.   Inner-Iter.     Column Row Layer    Maximum-Head-Change  Column Row Layer    Maximum-Flux-Residual          L2-NORM 
          0                 1           2             4    7     1      -0.7561372304E-01       4    7    1        -0.3977651476E+01      0.9898819810E+01
          0                 2           2             4    7     1       0.7355015735E-02       4    7    1         0.3977558067E+00      0.9898685735E+00
          0                 3           2             4    7     1      -0.5008506506E-03       4    7    1        -0.2784300687E-01      0.6929025751E-01
          0                 4           1             4    7     1       0.1992931028E-04       4    7    1         0.1138780164E-02      0.2833927499E-02

    ------------------------------------------------
       NWT REQUIRED            4 OUTER ITERATIONS 
       AND A TOTAL OF          7 INNER ITERATIONS.
    ------------------------------------------------

 NO OUTPUT CONTROL FOR STRESS PERIOD    9   TIME STEP    8
 
 SOLVING FOR HEAD 
                                                   Max.-Head-Change                         Max.-Flux-Residual
  Residual-Control   Outer-Iter.   Inner-Iter.     Column Row Layer    Maximum-Head-Change  Column Row Layer    Maximum-Flux-Residual          L2-NORM 
          0                 1           2             4    7     1      -0.7470675676E-01       4    7    1        -0.3928723847E+01      0.9847129331E+01
          0                 2           2             4    7     1       0.7266797955E-02       4    7    1         0.3928634103E+00      0.9846830604E+00
          0                 3           2             4    7     1      -0.4948432945E-03       4    7    1        -0.2750053550E-01      0.6892737789E-01
          0                 4           1             4    7     1       0.1969027188E-04       4    7    1         0.1124773072E-02      0.2819118910E-02

    ------------------------------------------------
       NWT REQUIRED            4 OUTER ITERATIONS 
       AND A TOTAL OF          7 INNER ITERATIONS.
    ------------------------------------------------

 NO OUTPUT CONTROL FOR STRESS PERIOD    9   TIME STEP    9
 
 SOLVING FOR HEAD 
                                                   Max.-Head-Change                         Max.-Flux-Residual
  Residual-Control   Outer-Iter.   Inner-Iter.     Column Row Layer    Maximum-Head-Change  Column Row Layer    Maximum-Flux-Residual          L2-NORM 
          0                 1           2             4    7     1      -0.7383283243E-01       4    7    1        -0.3881602028E+01      0.9797229220E+01
          0                 2           2             4    7     1       0.7181794001E-02       4    7    1         0.3881515748E+00      0.9797118727E+00
          0                 3           2             4    7     1      -0.4890547913E-03       4    7    1        -0.2717070362E-01      0.6857947110E-01
          0                 4           1             4    7     1       0.1945994208E-04       4    7    1         0.1111282931E-02      0.2804871910E-02

    ------------------------------------------------
       NWT REQUIRED            4 OUTER ITERATIONS 
       AND A TOTAL OF          7 INNER ITERATIONS.
    ------------------------------------------------

 NO OUTPUT CONTROL FOR STRESS PERIOD    9   TIME STEP   10
 
 SOLVING FOR HEAD 
                                                   Max.-Head-Change                         Max.-Flux-Residual
  Residual-Control   Outer-Iter.   Inner-Iter.     Column Row Layer    Maximum-Head-Change  Column Row Layer    Maximum-Flux-Residual          L2-NORM 
          0                 1           2             4    7     1      -0.7299011178E-01       4    7    1        -0.3836186193E+01      0.9748938810E+01
          0                 2           2             4    7     1       0.7099825023E-02       4    7    1         0.3836103189E+00      0.9748831453E+00
          0                 3           2             4    7     1      -0.4834729616E-03       4    7    1        -0.2685281247E-01      0.6824152668E-01
          0                 4           1             4    7     1       0.1923783676E-04       4    7    1         0.1098281215E-02      0.2791068591E-02

    ------------------------------------------------
       NWT REQUIRED            4 OUTER ITERATIONS 
       AND A TOTAL OF          7 INNER ITERATIONS.
    ------------------------------------------------

 NO OUTPUT CONTROL FOR STRESS PERIOD    9   TIME STEP   11
 
 SOLVING FOR HEAD 
                                                   Max.-Head-Change                         Max.-Flux-Residual
  Residual-Control   Outer-Iter.   Inner-Iter.     Column Row Layer    Maximum-Head-Change  Column Row Layer    Maximum-Flux-Residual          L2-NORM 
          0                 1           2             4    7     1      -0.7217725045E-01       4    7    1        -0.3792402864E+01      0.9702140655E+01
          0                 2           2             4    7     1       0.7020700418E-02       4    7    1         0.3792322958E+00      0.9701855420E+00
          0                 3           2             4    7     1      -0.4780848247E-03       4    7    1        -0.2654634781E-01      0.6791273493E-01
          0                 4           1             4    7     1       0.1902343739E-04       4    7    1         0.1085746790E-02      0.2777597137E-02

    ------------------------------------------------
       NWT REQUIRED            4 OUTER ITERATIONS 
       AND A TOTAL OF          7 INNER ITERATIONS.
    ------------------------------------------------

 NO OUTPUT CONTROL FOR STRESS PERIOD    9   TIME STEP   12
 
 SOLVING FOR HEAD 
                                                   Max.-Head-Change                         Max.-Flux-Residual
  Residual-Control   Outer-Iter.   Inner-Iter.     Column Row Layer    Maximum-Head-Change  Column Row Layer    Maximum-Flux-Residual          L2-NORM 
          0                 1           2             4    7     1      -0.7139293845E-01       4    7    1        -0.3750170966E+01      0.9656725130E+01
          0                 2           2             4    7     1       0.6944472451E-02       4    7    1         0.3750093998E+00      0.9656637437E+00
          0                 3           2             4    7     1      -0.4728939406E-03       4    7    1        -0.2625074215E-01      0.6759626696E-01
          0                 4           1             4    7     1       0.1881688765E-04       4    7    1         0.1073656514E-02      0.2764670958E-02

    ------------------------------------------------
       NWT REQUIRED            4 OUTER ITERATIONS 
       AND A TOTAL OF          7 INNER ITERATIONS.
    ------------------------------------------------

 NO OUTPUT CONTROL FOR STRESS PERIOD    9   TIME STEP   13
 
 SOLVING FOR HEAD 
                                                   Max.-Head-Change                         Max.-Flux-Residual
  Residual-Control   Outer-Iter.   Inner-Iter.     Column Row Layer    Maximum-Head-Change  Column Row Layer    Maximum-Flux-Residual          L2-NORM 
          0                 1           2             4    7     1      -0.7063563589E-01       4    7    1        -0.3709420274E+01      0.9612571589E+01
          0                 2           2             4    7     1       0.6870811614E-02       4    7    1         0.3709346081E+00      0.9612643550E+00
          0                 3           2             4    7     1      -0.4678778712E-03       4    7    1        -0.2596550399E-01      0.6728836138E-01
          0                 4           1             4    7     1       0.1861729335E-04       4    7    1         0.1061990258E-02      0.2752092702E-02

    ------------------------------------------------
       NWT REQUIRED            4 OUTER ITERATIONS 
       AND A TOTAL OF          7 INNER ITERATIONS.
    ------------------------------------------------

 NO OUTPUT CONTROL FOR STRESS PERIOD    9   TIME STEP   14
 
 SOLVING FOR HEAD 
                                                   Max.-Head-Change                         Max.-Flux-Residual
  Residual-Control   Outer-Iter.   Inner-Iter.     Column Row Layer    Maximum-Head-Change  Column Row Layer    Maximum-Flux-Residual          L2-NORM 
          0                 1           2             4    7     1      -0.6990385656E-01       4    7    1        -0.3670065973E+01      0.9569572072E+01
          0                 2           2             4    7     1       0.6799633239E-02       4    7    1         0.3669994407E+00      0.9569494826E+00
          0                 3           2             4    7     1      -0.4630308505E-03       4    7    1        -0.2569003966E-01      0.6698636113E-01
          0                 4           1             4    7     1       0.1842442630E-04       4    7    1         0.1050723767E-02      0.2740074442E-02

    ------------------------------------------------
       NWT REQUIRED            4 OUTER ITERATIONS 
       AND A TOTAL OF          7 INNER ITERATIONS.
    ------------------------------------------------

 NO OUTPUT CONTROL FOR STRESS PERIOD    9   TIME STEP   15
 
 SOLVING FOR HEAD 
                                                   Max.-Head-Change                         Max.-Flux-Residual
  Residual-Control   Outer-Iter.   Inner-Iter.     Column Row Layer    Maximum-Head-Change  Column Row Layer    Maximum-Flux-Residual          L2-NORM 
          0                 1           2             4    7     1      -0.6919639677E-01       4    7    1        -0.3632042358E+01      0.9527593096E+01
          0                 2           2             4    7     1       0.6730820357E-02       4    7    1         0.3631973279E+00      0.9527895429E+00
          0                 3           2             4    7     1      -0.4583449130E-03       4    7    1        -0.2542388929E-01      0.6669515668E-01
          0                 4           1             4    7     1       0.1823796863E-04       4    7    1         0.1039838220E-02      0.2727825347E-02

    ------------------------------------------------
       NWT REQUIRED            4 OUTER ITERATIONS 
       AND A TOTAL OF          7 INNER ITERATIONS.
    ------------------------------------------------

 NO OUTPUT CONTROL FOR STRESS PERIOD    9   TIME STEP   16
 
 SOLVING FOR HEAD 
                                                   Max.-Head-Change                         Max.-Flux-Residual
  Residual-Control   Outer-Iter.   Inner-Iter.     Column Row Layer    Maximum-Head-Change  Column Row Layer    Maximum-Flux-Residual          L2-NORM 
          0                 1           2             4    7     1      -0.6851211901E-01       4    7    1        -0.3595287009E+01      0.9486603848E+01
          0                 2           2             4    7     1       0.6664262165E-02       4    7    1         0.3595220284E+00      0.9486535071E+00
          0                 3           2             4    7     1      -0.4538125133E-03       4    7    1        -0.2516661599E-01      0.6640566755E-01
          0                 4           1             4    7     1       0.1805762044E-04       4    7    1         0.1029315740E-02      0.2715987739E-02

    ------------------------------------------------
       NWT REQUIRED            4 OUTER ITERATIONS 
       AND A TOTAL OF          7 INNER ITERATIONS.
    ------------------------------------------------

 NO OUTPUT CONTROL FOR STRESS PERIOD    9   TIME STEP   17
 
 SOLVING FOR HEAD 
                                                   Max.-Head-Change                         Max.-Flux-Residual
  Residual-Control   Outer-Iter.   Inner-Iter.     Column Row Layer    Maximum-Head-Change  Column Row Layer    Maximum-Flux-Residual          L2-NORM 
          0                 1           2             4    7     1      -0.6784967925E-01       4    7    1        -0.3559726411E+01      0.9446539753E+01
          0                 2           2             4    7     1       0.6586097284E-02       4    7    1         0.3550812135E+00      0.9445889057E+00
          0                 3           2             4    7     1      -0.4484896952E-03       4    7    1        -0.2485575343E-01      0.6612115993E-01
          0                 4           1             4    7     1       0.1784582100E-04       4    7    1         0.1016601470E-02      0.2704347207E-02

    ------------------------------------------------
       NWT REQUIRED            4 OUTER ITERATIONS 
       AND A TOTAL OF          7 INNER ITERATIONS.
    ------------------------------------------------

 NO OUTPUT CONTROL FOR STRESS PERIOD    9   TIME STEP   18
 
 SOLVING FOR HEAD 
                                                   Max.-Head-Change                         Max.-Flux-Residual
  Residual-Control   Outer-Iter.   Inner-Iter.     Column Row Layer    Maximum-Head-Change  Column Row Layer    Maximum-Flux-Residual          L2-NORM 
          0                 1           2             4    7     1      -0.6724029052E-01       4    7    1        -0.3526044562E+01      0.9407411852E+01
          0                 2           2             4    7     1       0.6540557684E-02       4    7    1         0.3525984623E+00      0.9407348959E+00
          0                 3           2             4    7     1      -0.4453886016E-03       4    7    1        -0.2468195974E-01      0.6585139371E-01
          0                 4           1             4    7     1       0.1772242562E-04       4    7    1         0.1009493299E-02      0.2693315294E-02

    ------------------------------------------------
       NWT REQUIRED            4 OUTER ITERATIONS 
       AND A TOTAL OF          7 INNER ITERATIONS.
    ------------------------------------------------

 NO OUTPUT CONTROL FOR STRESS PERIOD    9   TIME STEP   19
 
 SOLVING FOR HEAD 
                                                   Max.-Head-Change                         Max.-Flux-Residual
  Residual-Control   Outer-Iter.   Inner-Iter.     Column Row Layer    Maximum-Head-Change  Column Row Layer    Maximum-Flux-Residual          L2-NORM 
          0                 1           2             4    7     1      -0.6663501398E-01       4    7    1        -0.3493649453E+01      0.9369122326E+01
          0                 2           2             4    7     1       0.6481683359E-02       4    7    1         0.3493591279E+00      0.9369061852E+00
          0                 3           2             4    7     1      -0.4413794530E-03       4    7    1        -0.2445520456E-01      0.6558340590E-01
          0                 4           1             4    7     1       0.1756289780E-04       4    7    1         0.1000219000E-02      0.2682358880E-02

    ------------------------------------------------
       NWT REQUIRED            4 OUTER ITERATIONS 
       AND A TOTAL OF          7 INNER ITERATIONS.
    ------------------------------------------------

 NO OUTPUT CONTROL FOR STRESS PERIOD    9   TIME STEP   20
 
 SOLVING FOR HEAD 
                                                   Max.-Head-Change                         Max.-Flux-Residual
  Residual-Control   Outer-Iter.   Inner-Iter.     Column Row Layer    Maximum-Head-Change  Column Row Layer    Maximum-Flux-Residual          L2-NORM 
          0                 1           2             4    7     1      -0.6604694339E-01       4    7    1        -0.3462192419E+01      0.9331610426E+01
          0                 2           2             4    7     1       0.6424482588E-02       4    7    1         0.3462135928E+00      0.9331552063E+00
          0                 3           2             4    7     1      -0.4374842686E-03       4    7    1        -0.2423501542E-01      0.6532084815E-01
          0                 4           1             4    7     1       0.1740790508E-04       4    7    1         0.9912132666E-03      0.2671623063E-02

    ------------------------------------------------
       NWT REQUIRED            4 OUTER ITERATIONS 
       AND A TOTAL OF          7 INNER ITERATIONS.
    ------------------------------------------------

 NO OUTPUT CONTROL FOR STRESS PERIOD    9   TIME STEP   21
 
 SOLVING FOR HEAD 
                                                   Max.-Head-Change                         Max.-Flux-Residual
  Residual-Control   Outer-Iter.   Inner-Iter.     Column Row Layer    Maximum-Head-Change  Column Row Layer    Maximum-Flux-Residual          L2-NORM 
          0                 1           2             4    7     1      -0.6547550714E-01       4    7    1        -0.3431642072E+01      0.9294830775E+01
          0                 2           2             4    7     1       0.6368899770E-02       4    7    1         0.3431587186E+00      0.9294774403E+00
          0                 3           2             4    7     1      -0.4336992616E-03       4    7    1        -0.2402117260E-01      0.6506341659E-01
          0                 4           1             4    7     1       0.1725729607E-04       4    7    1         0.9824670951E-03      0.2661100624E-02

    ------------------------------------------------
       NWT REQUIRED            4 OUTER ITERATIONS 
       AND A TOTAL OF          7 INNER ITERATIONS.
    ------------------------------------------------

 NO OUTPUT CONTROL FOR STRESS PERIOD    9   TIME STEP   22
 
 SOLVING FOR HEAD 
                                                   Max.-Head-Change                         Max.-Flux-Residual
  Residual-Control   Outer-Iter.   Inner-Iter.     Column Row Layer    Maximum-Head-Change  Column Row Layer    Maximum-Flux-Residual          L2-NORM 
          0                 1           2             4    7     1      -0.6491976173E-01       4    7    1        -0.3401946969E+01      0.9258748503E+01
          0                 2           2             4    7     1       0.6314843136E-02       4    7    1         0.3401893615E+00      0.9258693739E+00
          0                 3           2             4    7     1      -0.4300181833E-03       4    7    1        -0.2381331607E-01      0.6481085363E-01
          0                 4           1             4    7     1       0.1711082268E-04       4    7    1         0.9739657462E-03      0.2650759422E-02

    ------------------------------------------------
       NWT REQUIRED            4 OUTER ITERATIONS 
       AND A TOTAL OF          7 INNER ITERATIONS.
    ------------------------------------------------

 NO OUTPUT CONTROL FOR STRESS PERIOD    9   TIME STEP   23
 
 SOLVING FOR HEAD 
                                                   Max.-Head-Change                         Max.-Flux-Residual
  Residual-Control   Outer-Iter.   Inner-Iter.     Column Row Layer    Maximum-Head-Change  Column Row Layer    Maximum-Flux-Residual          L2-NORM 
          0                 1           2             4    7     1      -0.6437907700E-01       4    7    1        -0.3373072723E+01      0.9223331454E+01
          0                 2           2             4    7     1       0.6262251395E-02       4    7    1         0.3373020830E+00      0.9223278399E+00
          0                 3           2             4    7     1      -0.4264368599E-03       4    7    1        -0.2361120511E-01      0.6456296404E-01
          0                 4           1             4    7     1       0.1696831854E-04       4    7    1         0.9656994021E-03      0.2640630443E-02

    ------------------------------------------------
       NWT REQUIRED            4 OUTER ITERATIONS 
       AND A TOTAL OF          7 INNER ITERATIONS.
    ------------------------------------------------

 NO OUTPUT CONTROL FOR STRESS PERIOD    9   TIME STEP   24
 
 SOLVING FOR HEAD 
                                                   Max.-Head-Change                         Max.-Flux-Residual
  Residual-Control   Outer-Iter.   Inner-Iter.     Column Row Layer    Maximum-Head-Change  Column Row Layer    Maximum-Flux-Residual          L2-NORM 
          0                 1           2             4    7     1      -0.6385272686E-01       4    7    1        -0.3344979392E+01      0.9188538377E+01
          0                 2           2             4    7     1       0.6211053922E-02       4    7    1         0.3344928895E+00      0.9188486820E+00
          0                 3           2             4    7     1      -0.4229504816E-03       4    7    1        -0.2341456015E-01      0.6431942467E-01
          0                 4           1             4    7     1       0.1682959220E-04       4    7    1         0.9576566151E-03      0.2630663980E-02

    ------------------------------------------------
       NWT REQUIRED            4 OUTER ITERATIONS 
       AND A TOTAL OF          7 INNER ITERATIONS.
    ------------------------------------------------

 NO OUTPUT CONTROL FOR STRESS PERIOD    9   TIME STEP   25
 
 SOLVING FOR HEAD 
                                                   Max.-Head-Change                         Max.-Flux-Residual
  Residual-Control   Outer-Iter.   Inner-Iter.     Column Row Layer    Maximum-Head-Change  Column Row Layer    Maximum-Flux-Residual          L2-NORM 
          0                 1           2             4    7     1      -0.6334002880E-01       4    7    1        -0.3317629330E+01      0.9154357480E+01
          0                 2           2             4    7     1       0.6161186220E-02       4    7    1         0.3317580166E+00      0.9155312672E+00
          0                 3           2             4    7     1      -0.4195546572E-03       4    7    1        -0.2322311772E-01      0.6408721695E-01
          0                 4           1             4    7     1       0.1669446970E-04       4    7    1         0.9498266270E-03      0.2621169902E-02

    ------------------------------------------------
       NWT REQUIRED            4 OUTER ITERATIONS 
       AND A TOTAL OF          7 INNER ITERATIONS.
    ------------------------------------------------

 NO OUTPUT CONTROL FOR STRESS PERIOD    9   TIME STEP   26
 
 SOLVING FOR HEAD 
                                                   Max.-Head-Change                         Max.-Flux-Residual
  Residual-Control   Outer-Iter.   Inner-Iter.     Column Row Layer    Maximum-Head-Change  Column Row Layer    Maximum-Flux-Residual          L2-NORM 
          0                 1           2             4    7     1      -0.6284031647E-01       4    7    1        -0.3290987046E+01      0.9120656700E+01
          0                 2           2             4    7     1       0.6112577819E-02       4    7    1         0.3290939156E+00      0.9120608927E+00
          0                 3           2             4    7     1      -0.4162445868E-03       4    7    1        -0.2303662936E-01      0.6384429007E-01
          0                 4           1             4    7     1       0.1656275866E-04       4    7    1         0.9421992409E-03      0.2611232546E-02

    ------------------------------------------------
       NWT REQUIRED            4 OUTER ITERATIONS 
       AND A TOTAL OF          7 INNER ITERATIONS.
    ------------------------------------------------

 NO OUTPUT CONTROL FOR STRESS PERIOD    9   TIME STEP   27
 
 SOLVING FOR HEAD 
                                                   Max.-Head-Change                         Max.-Flux-Residual
  Residual-Control   Outer-Iter.   Inner-Iter.     Column Row Layer    Maximum-Head-Change  Column Row Layer    Maximum-Flux-Residual          L2-NORM 
          0                 1           2             4    7     1      -0.6235311492E-01       4    7    1        -0.3265025552E+01      0.9087504145E+01
          0                 2           2             4    7     1       0.6065188178E-02       4    7    1         0.3264978880E+00      0.9087457376E+00
          0                 3           2             4    7     1      -0.4130175106E-03       4    7    1        -0.2285490620E-01      0.6361222929E-01
          0                 4           1             4    7     1       0.1643435040E-04       4    7    1         0.9347667599E-03      0.2601741484E-02

    ------------------------------------------------
       NWT REQUIRED            4 OUTER ITERATIONS 
       AND A TOTAL OF          7 INNER ITERATIONS.
    ------------------------------------------------

 NO OUTPUT CONTROL FOR STRESS PERIOD    9   TIME STEP   28
 
 SOLVING FOR HEAD 
                                                   Max.-Head-Change                         Max.-Flux-Residual
  Residual-Control   Outer-Iter.   Inner-Iter.     Column Row Layer    Maximum-Head-Change  Column Row Layer    Maximum-Flux-Residual          L2-NORM 
          0                 1           2             4    7     1      -0.6187782987E-01       4    7    1        -0.3239712659E+01      0.9054889282E+01
          0                 2           2             4    7     1       0.6018957611E-02       4    7    1         0.3239667152E+00      0.9054843556E+00
          0                 3           2             4    7     1      -0.4098693638E-03       4    7    1        -0.2267772293E-01      0.6338393951E-01
          0                 4           1             4    7     1       0.1630908271E-04       4    7    1         0.9275199532E-03      0.2592579152E-02

    ------------------------------------------------
       NWT REQUIRED            4 OUTER ITERATIONS 
       AND A TOTAL OF          7 INNER ITERATIONS.
    ------------------------------------------------

 NO OUTPUT CONTROL FOR STRESS PERIOD    9   TIME STEP   29
 
 SOLVING FOR HEAD 
                                                   Max.-Head-Change                         Max.-Flux-Residual
  Residual-Control   Outer-Iter.   Inner-Iter.     Column Row Layer    Maximum-Head-Change  Column Row Layer    Maximum-Flux-Residual          L2-NORM 
          0                 1           2             4    7     1      -0.6141390743E-01       4    7    1        -0.3215017654E+01      0.9022788345E+01
          0                 2           2             4    7     1       0.5973832242E-02       4    7    1         0.3214973260E+00      0.9022743499E+00
          0                 3           2             4    7     1      -0.4067964775E-03       4    7    1        -0.2250486456E-01      0.6315924068E-01
          0                 4           1             4    7     1       0.1618680994E-04       4    7    1         0.9204500468E-03      0.2583221722E-02

    ------------------------------------------------
       NWT REQUIRED            4 OUTER ITERATIONS 
       AND A TOTAL OF          7 INNER ITERATIONS.
    ------------------------------------------------

 NO OUTPUT CONTROL FOR STRESS PERIOD    9   TIME STEP   30



 STREAM LISTING     PERIOD      9   STEP       30

 LAYER ROW COL. STREAM  RCH.  FLOW INTO     FLOW TO   FLOW OUT OF   OVRLND.     DIRECT     STREAM       STREAM     STREAM     STREAM   STREAMBED  STREAMBED
                SEG.NO.  NO.  STRM. RCH.    AQUIFER    STRM. RCH.    RUNOFF     PRECIP       ET          HEAD       DEPTH      WIDTH   CONDCTNC.   GRADIENT

   1    1    1     1     1    6.1000E+01  3.7546E-01   6.0624E+01  0.000E+00  0.000E+00  0.000E+00  1.09459E+03  1.538E+00  1.839E+01  8.274E-02  1.513E+00
   1    2    2     1     2    6.0624E+01  5.8146E-01   6.0043E+01  0.000E+00  0.000E+00  0.000E+00  1.08959E+03  1.532E+00  1.833E+01  1.283E-01  1.511E+00
   1    3    3     1     3    6.0043E+01  4.9588E-01   5.9547E+01  0.000E+00  0.000E+00  0.000E+00  1.08394E+03  1.525E+00  1.826E+01  1.096E-01  1.508E+00
   1    3    4     1     4    5.9547E+01  4.5664E-01   5.9090E+01  0.000E+00  0.000E+00  0.000E+00  1.07893E+03  1.519E+00  1.821E+01  1.010E-01  1.506E+00
   1    4    5     2     1    5.7090E+01  3.8827E-01   5.6702E+01  0.000E+00  0.000E+00  0.000E+00  1.07391E+03  1.978E+00  1.200E+01  7.800E-02  1.659E+00
   1    5    6     2     2    5.6702E+01  2.9824E-01   5.6404E+01  0.000E+00  0.000E+00  0.000E+00  1.06848E+03  1.971E+00  1.200E+01  6.000E-02  1.657E+00
   1    6    6     2     3    5.6404E+01  2.9787E-01   5.6106E+01  0.000E+00  0.000E+00  0.000E+00  1.06376E+03  1.964E+00  1.200E+01  6.000E-02  1.655E+00
   1    7    6     2     4    5.6106E+01  2.9749E-01   5.5808E+01  0.000E+00  0.000E+00  0.000E+00  1.05903E+03  1.958E+00  1.200E+01  6.000E-02  1.653E+00
   1    8    6     2     5    5.5808E+01  2.9712E-01   5.5511E+01  0.000E+00  0.000E+00  0.000E+00  1.05431E+03  1.952E+00  1.200E+01  6.000E-02  1.651E+00
   1    3    5     3     1    2.0000E+00  2.8252E-01   1.7175E+00  0.000E+00  0.000E+00  0.000E+00  1.07555E+03  1.909E+00  9.636E+00  7.227E-02  1.955E+00
   1    3    6     3     2    1.7175E+00  2.4905E-01   1.4684E+00  0.000E+00  0.000E+00  0.000E+00  1.07264E+03  1.727E+00  8.909E+00  6.682E-02  1.864E+00
   1    3    7     3     3    1.4684E+00  1.9718E-01   1.2712E+00  0.000E+00  0.000E+00  0.000E+00  1.06987E+03  1.555E+00  8.218E+00  5.547E-02  1.777E+00
   1    4    8     3     4    1.2712E+00  2.2567E-01   1.0456E+00  0.000E+00  0.000E+00  0.000E+00  1.06682E+03  1.364E+00  7.455E+00  6.709E-02  1.682E+00
   1    5    8     3     5    1.0456E+00  1.5790E-01   8.8768E-01  0.000E+00  0.000E+00  0.000E+00  1.06362E+03  1.164E+00  6.655E+00  4.991E-02  1.582E+00
   1    6    8     3     6    8.8768E-01  5.5980E-02   8.3170E-01  0.000E+00  0.000E+00  0.000E+00  1.06158E+03  1.036E+00  6.145E+00  1.844E-02  1.518E+00
   1    5   10     4     1    1.0000E+01  9.0919E-02   9.9091E+00  0.000E+00  0.000E+00  0.000E+00  1.07836E+03  6.368E-01  1.000E+01  2.500E-02  1.212E+00
   1    5    9     4     2    9.9091E+00  1.8158E-01   9.7275E+00  0.000E+00  0.000E+00  0.000E+00  1.07154E+03  6.315E-01  1.000E+01  5.000E-02  1.211E+00
   1    6    8     4     3    9.7275E+00  1.2689E-01   9.6006E+00  0.000E+00  0.000E+00  0.000E+00  1.06381E+03  6.256E-01  1.000E+01  3.500E-02  1.209E+00
   1    6    8     5     1    1.0432E+01  2.2686E-01   1.0205E+01  0.000E+00  0.000E+00  0.000E+00  1.05868E+03  6.790E-01  1.542E+01  6.166E-02  1.226E+00
   1    7    7     5     2    1.0205E+01  2.7894E-01   9.9265E+00  0.000E+00  0.000E+00  0.000E+00  1.05417E+03  6.732E-01  1.519E+01  7.594E-02  1.224E+00
   1    8    7     5     3    9.9265E+00  1.9221E-01   9.7343E+00  0.000E+00  0.000E+00  0.000E+00  1.04992E+03  6.676E-01  1.497E+01  5.241E-02  1.223E+00
   1    8    6     5     4    9.7343E+00  1.3577E-01   9.5985E+00  0.000E+00  0.000E+00  0.000E+00  1.04691E+03  6.637E-01  1.482E+01  3.706E-02  1.221E+00
   1    9    6     6     1    6.5110E+01  3.0992E-01   6.4800E+01  0.000E+00  0.000E+00  0.000E+00  1.04489E+03  2.165E+00  1.200E+01  6.000E-02  1.722E+00
   1   10    7     6     2    6.4800E+01  3.0955E-01   6.4490E+01  0.000E+00  0.000E+00  0.000E+00  1.04034E+03  2.159E+00  1.200E+01  6.000E-02  1.720E+00
   1   11    7     6     3    6.4490E+01  3.0918E-01   6.4181E+01  0.000E+00  0.000E+00  0.000E+00  1.03579E+03  2.153E+00  1.200E+01  6.000E-02  1.718E+00
   1   12    7     6     4    6.4181E+01  3.0881E-01   6.3872E+01  0.000E+00  0.000E+00  0.000E+00  1.03124E+03  2.147E+00  1.200E+01  6.000E-02  1.716E+00
   1   13    7     6     5    6.3872E+01  1.9338E-02   6.3853E+01  0.000E+00  0.000E+00  0.000E+00  1.02805E+03  2.143E+00  1.200E+01  2.400E-02  2.686E-01
   1   14    9     7     1    1.5000E+02  1.3312E+00   1.4867E+02  0.000E+00  0.000E+00  0.000E+00  1.03987E+03  2.288E+00  5.529E+01  5.593E-01  7.934E-01
   1   13    8     7     2    1.4867E+02  1.7954E+00   1.4687E+02  0.000E+00  0.000E+00  0.000E+00  1.03478E+03  2.279E+00  5.526E+01  6.148E-01  9.735E-01
   1   13    7     7     3    1.4687E+02  1.3646E+00   1.4551E+02  0.000E+00  0.000E+00  0.000E+00  1.02969E+03  2.271E+00  5.522E+01  5.585E-01  8.145E-01
   1   13    6     8     1    2.0936E+02  9.6425E-01   2.0840E+02  0.000E+00  0.000E+00  0.000E+00  1.02506E+03  3.189E+00  4.624E+01  4.712E-01  6.821E-01
   1   13    5     8     2    2.0840E+02  1.7020E-01   2.0823E+02  0.000E+00  0.000E+00  0.000E+00  1.01881E+03  3.186E+00  4.620E+01  4.708E-01  1.205E-01
   1   13    4     8     3    2.0823E+02 -2.1832E+00   2.1041E+02  0.000E+00  0.000E+00  0.000E+00  1.01257E+03  3.192E+00  4.628E+01  4.716E+00 -1.543E-01
   1   13    3     8     4    2.1041E+02 -3.3094E+00   2.1372E+02  0.000E+00  0.000E+00  0.000E+00  1.00633E+03  3.207E+00  4.651E+01  4.739E+00 -2.328E-01
   1   13    2     8     5    2.1372E+02 -2.5495E+00   2.1627E+02  0.000E+00  0.000E+00  0.000E+00  1.00010E+03  3.224E+00  4.675E+01  4.764E+00 -1.784E-01
   1   13    1     8     6    2.1627E+02 -2.0052E+00   2.1827E+02  0.000E+00  0.000E+00  0.000E+00  9.95112E+02  3.237E+00  4.693E+01  2.870E+00 -2.329E-01





UNSATURATED ZONE PACKAGE VOLUMETRIC BUDGET FOR  TIME STEP    30 STRESS PERIOD    9
  ------------------------------------------------------------------------------



     CUMULATIVE VOLUMES      L**3       RATES FOR THIS TIME STEP      L**3/T
     ------------------                 ------------------------

           IN:                                      IN:
           ---                                      ---
        INFILTRATION =   423438517.6018          INFILTRATION =          49.5675

          OUT:                                     OUT:
          ----                                     ----
              UZF ET =   385437807.6258                UZF ET =          49.5675
        UZF RECHARGE =       73224.0000          UZF RECHARGE =       0.0000E+00

            IN - OUT =    37927485.9760              IN - OUT =       0.0000E+00

          STORAGE:                                 STORAGE:
          --------                                 --------
      STORAGE CHANGE =    37927487.9316        STORAGE CHANGE =       3.1609E-13

 PERCENT DISCREPANCY IS DIFFERENCE BETWEEN IN-OUT MINUS CHANGE IN STORAGE
 DIVIDED BY THE AVERAGE OF IN AND OUT TIMES 100

 PERCENT DISCREPANCY =           0.00     PERCENT DISCREPANCY =           0.00






1
  VOLUMETRIC BUDGET FOR AGRICULTURAL FIELDS AT  END OF TIME STEP   30, STRESS PERIOD   9
  ------------------------------------------------------------------------------

     CUMULATIVE VOLUMES      L**3       RATES FOR THIS TIME STEP      L**3/T
     ------------------                 ------------------------

           IN:                                      IN:
           ---                                      ---
               AG WELLS  =   405533568.0000                 AG WELLS  =          48.7200
      DIVERSION SEGMENTS =           0.0000        DIVERSION SEGMENTS =           0.0000
           GW IRRIGATION =           0.0000             GW IRRIGATION =           0.0000
           SW IRRIGATION =           0.0000             SW IRRIGATION =           0.0000
        SYSTEM LOSSES GW =           0.0000          SYSTEM LOSSES GW =           0.0000
        SYSTEM LOSSES SW =           0.0000          SYSTEM LOSSES SW =           0.0000

                TOTAL IN =   405533568.0000                  TOTAL IN =          48.7200

          OUT:                                     OUT:
          ----                                     ----
               AG WELLS  =           0.0000                 AG WELLS  =           0.0000
      DIVERSION SEGMENTS =           0.0000        DIVERSION SEGMENTS =           0.0000
           GW IRRIGATION =   405533568.0000             GW IRRIGATION =          48.7200
           SW IRRIGATION =           0.0000             SW IRRIGATION =           0.0000
        SYSTEM LOSSES GW =           0.0000          SYSTEM LOSSES GW =           0.0000
        SYSTEM LOSSES SW =           0.0000          SYSTEM LOSSES SW =           0.0000

               TOTAL OUT =   405533568.0000                 TOTAL OUT =          48.7200

                IN - OUT =           0.0000                  IN - OUT =           0.0000

     PERCENT DISCREPANCY =           0.00         PERCENT DISCREPANCY =           0.00



1
  VOLUMETRIC BUDGET FOR ENTIRE MODEL AT END OF TIME STEP   30, STRESS PERIOD   9
  ------------------------------------------------------------------------------

     CUMULATIVE VOLUMES      L**3       RATES FOR THIS TIME STEP      L**3/T
     ------------------                 ------------------------

           IN:                                      IN:
           ---                                      ---
             STORAGE     =   407790080.0000               STORAGE     =          47.7600
       CONSTANT HEAD     =           0.0000         CONSTANT HEAD     =           0.0000
     HEAD DEP BOUNDS     =     6030661.5000       HEAD DEP BOUNDS     =           0.2854
      STREAM LEAKAGE     =   270659584.0000        STREAM LEAKAGE     =          12.7724
        UZF RECHARGE     =       73223.9531          UZF RECHARGE     =           0.0000
               GW ET     =           0.0000                 GW ET     =           0.0000
     SURFACE LEAKAGE     =           0.0000       SURFACE LEAKAGE     =           0.0000
           AG WELLS      =           0.0000             AG WELLS      =           0.0000

                TOTAL IN =   684553536.0000                  TOTAL IN =          60.8178

          OUT:                                     OUT:
          ----                                     ----
             STORAGE     =    47442328.0000               STORAGE     =           0.7735
       CONSTANT HEAD     =           0.0000         CONSTANT HEAD     =           0.0000
     HEAD DEP BOUNDS     =     6242937.0000       HEAD DEP BOUNDS     =           0.2968
      STREAM LEAKAGE     =   212315920.0000        STREAM LEAKAGE     =          10.0473
        UZF RECHARGE     =           0.0000          UZF RECHARGE     =           0.0000
               GW ET     =    13019543.0000                 GW ET     =           0.9805
     SURFACE LEAKAGE     =           0.0000       SURFACE LEAKAGE     =           0.0000
           AG WELLS      =   405533568.0000             AG WELLS      =          48.7200

               TOTAL OUT =   684554304.0000                 TOTAL OUT =          60.8180

                IN - OUT =        -768.0000                  IN - OUT =      -1.7166E-04

     PERCENT DISCREPANCY =          -0.00         PERCENT DISCREPANCY =          -0.00






         TIME SUMMARY AT END OF TIME STEP   30 IN STRESS PERIOD    9
                    SECONDS     MINUTES      HOURS       DAYS        YEARS
                    -----------------------------------------------------------
   TIME STEP LENGTH  87667.      1461.1      24.352      1.0147     2.77799E-03
 STRESS PERIOD TIME 2.63000E+06  43833.      730.56      30.440     8.33397E-02
         TOTAL TIME 2.11264E+07 3.52107E+05  5868.4      244.52     0.66945    
1
1
                            STRESS PERIOD NO.   10, LENGTH =   2630000.    
                            -----------------------------------------------

                              NUMBER OF TIME STEPS =    30

                               MULTIPLIER FOR DELT =     1.000

                            INITIAL TIME STEP SIZE =   87666.66    

 REUSING NON-PARAMETER GHB CELLS FROM LAST STRESS PERIOD

      2 GHB CELLS

 REUSING STREAM SEGMENT DATA FROM LAST STRESS PERIOD



            AREAL INFILTRATION RATE
 READING ON UNIT   19 WITH FORMAT: (FREE)              

            1           2           3           4           5           6           7           8           9          10
 ........................................................................................................................
   1   1.0000E-10  2.0000E-10   0.000       0.000       0.000       0.000       0.000       0.000       0.000       0.000    
   2   2.0000E-10  1.0000E-10  2.0000E-10   0.000       0.000      8.0000E-10  8.0000E-10  5.0000E-10   0.000       0.000    
   3    0.000      5.0000E-10  1.0000E-10  1.0000E-10  8.0000E-10  8.0000E-10  5.0000E-10  5.0000E-10   0.000       0.000    
   4   8.0000E-10  5.0000E-10  1.0000E-10  1.0000E-10  1.0000E-10  1.0000E-10  1.0000E-10  1.0000E-10  2.0000E-10   0.000    
   5   8.0000E-10  5.0000E-10  1.0000E-10  1.0000E-10  1.0000E-10  1.0000E-10  1.0000E-10  1.0000E-10  1.0000E-10  1.0000E-10
   6   8.0000E-10  5.0000E-10  5.0000E-10  2.0000E-10  2.0000E-10  1.0000E-10  1.0000E-10  1.0000E-10  1.0000E-10  5.0000E-10
   7   8.0000E-10  5.0000E-10  5.0000E-10  2.0000E-10  2.0000E-10  1.0000E-10  1.0000E-10  2.0000E-10  2.0000E-10   0.000    
   8    0.000      5.0000E-10  5.0000E-10  2.0000E-10  2.0000E-10  1.0000E-10  1.0000E-10  2.0000E-10  5.0000E-10   0.000    
   9    0.000      5.0000E-10  5.0000E-10  2.0000E-10  2.0000E-10  1.0000E-10  1.0000E-10  2.0000E-10  5.0000E-10   0.000    
  10    0.000      5.0000E-10  5.0000E-10  2.0000E-10  2.0000E-10  1.0000E-10  1.0000E-10  2.0000E-10  5.0000E-10  8.0000E-10
  11    0.000      1.0000E-10  1.0000E-10  1.0000E-10  1.0000E-10  1.0000E-10  1.0000E-10  2.0000E-10  5.0000E-10   0.000    
  12   1.0000E-10  1.0000E-10  1.0000E-10  1.0000E-10  1.0000E-10  1.0000E-10  1.0000E-10  1.0000E-10  2.0000E-10   0.000    
  13   1.0000E-10  1.0000E-10  2.0000E-10  2.0000E-10  2.0000E-10  2.0000E-10  2.0000E-10  1.0000E-10  1.0000E-10   0.000    
  14    0.000      2.0000E-10  5.0000E-10  5.0000E-10  5.0000E-10  5.0000E-10  5.0000E-10  2.0000E-10  1.0000E-10   0.000    
  15    0.000       0.000      8.0000E-10  8.0000E-10  8.0000E-10  8.0000E-10   0.000       0.000       0.000       0.000    

                  ET RATE =  7.500000E-08

 USING ET EXTINCTION DEPTH FROM PREVIOUS STRESS PERIOD. CURRENT PERIOD IS:      10

 USING EXTINCTION WATER CONTENT FROM PREVIOUS STRESS PERIOD. CURRENT PERIOD IS:      10

 USING AIR ENTRY PRESSURE FROM PREVIOUS STRESS PERIOD. CURRENT PERIOD IS:      10

 USING ROOT PRESSURE HEAD FROM PREVIOUS STRESS PERIOD. CURRENT PERIOD IS:      10

 USING ROOT ACTIVITY FROM PREVIOUS STRESS PERIOD. CURRENT PERIOD IS:      10

 PROCESSING AG STRESS PERIOD DATA

 READING AG STRESS PERIOD DATA

 READING IRRIGATION WELL

 END PROCESSING AG STRESS PERIOD DATA OPTIONS
 
 SOLVING FOR HEAD 
                                                   Max.-Head-Change                         Max.-Flux-Residual
  Residual-Control   Outer-Iter.   Inner-Iter.     Column Row Layer    Maximum-Head-Change  Column Row Layer    Maximum-Flux-Residual          L2-NORM 
          0                 1           2             5    8     1       0.7261642574E-01       5    8    1         0.3955450969E+01      0.1080415806E+02
          0                 2           2             5    8     1      -0.7063458593E-02       5    8    1        -0.3955354094E+00      0.1080367071E+01
          0                 3           2             5    8     1       0.4809967293E-03       5    8    1         0.2768758341E-01      0.7562410546E-01
          0                 4           1             5    8     1      -0.1913930411E-04       5    8    1        -0.1132423312E-02      0.3092891481E-02

    ------------------------------------------------
       NWT REQUIRED            4 OUTER ITERATIONS 
       AND A TOTAL OF          7 INNER ITERATIONS.
    ------------------------------------------------

 NO OUTPUT CONTROL FOR STRESS PERIOD   10   TIME STEP    1
 
 SOLVING FOR HEAD 
                                                   Max.-Head-Change                         Max.-Flux-Residual
  Residual-Control   Outer-Iter.   Inner-Iter.     Column Row Layer    Maximum-Head-Change  Column Row Layer    Maximum-Flux-Residual          L2-NORM 
          0                 1           2             5    6     1       0.6938628926E-01       5    8    1         0.3773566970E+01      0.1047387405E+02
          0                 2           2             5    6     1      -0.6749258272E-02       5    8    1        -0.3773475915E+00      0.1047351976E+01
          0                 3           2             5    6     1       0.4596008141E-03       5    8    1         0.2641443009E-01      0.7331391190E-01
          0                 4           1             5    6     1      -0.1828790269E-04       5    8    1        -0.1080351298E-02      0.2998468037E-02

    ------------------------------------------------
       NWT REQUIRED            4 OUTER ITERATIONS 
       AND A TOTAL OF          7 INNER ITERATIONS.
    ------------------------------------------------

 NO OUTPUT CONTROL FOR STRESS PERIOD   10   TIME STEP    2
 
 SOLVING FOR HEAD 
                                                   Max.-Head-Change                         Max.-Flux-Residual
  Residual-Control   Outer-Iter.   Inner-Iter.     Column Row Layer    Maximum-Head-Change  Column Row Layer    Maximum-Flux-Residual          L2-NORM 
          0                 1           2             5    6     1       0.6644099159E-01       5    6    1         0.3606096629E+01      0.1015093996E+02
          0                 2           2             5    6     1      -0.6462770610E-02       5    6    1        -0.3606009167E+00      0.1015061647E+01
          0                 3           2             5    6     1       0.4400919739E-03       5    6    1         0.2524215895E-01      0.7105366342E-01
          0                 4           1             5    6     1      -0.1751162883E-04       5    6    1        -0.1032405352E-02      0.2906067598E-02

    ------------------------------------------------
       NWT REQUIRED            4 OUTER ITERATIONS 
       AND A TOTAL OF          7 INNER ITERATIONS.
    ------------------------------------------------

 NO OUTPUT CONTROL FOR STRESS PERIOD   10   TIME STEP    3
 
 SOLVING FOR HEAD 
                                                   Max.-Head-Change                         Max.-Flux-Residual
  Residual-Control   Outer-Iter.   Inner-Iter.     Column Row Layer    Maximum-Head-Change  Column Row Layer    Maximum-Flux-Residual          L2-NORM 
          0                 1           2             5    6     1       0.6366183461E-01       5    6    1         0.3453033424E+01      0.9844984272E+01
          0                 2           2             5    6     1      -0.6192443164E-02       5    6    1        -0.3452952009E+00      0.9844688823E+00
          0                 3           2             5    6     1       0.4216835917E-03       5    6    1         0.2417075267E-01      0.6891218435E-01
          0                 4           1             5    6     1      -0.1677914352E-04       5    6    1        -0.9885848128E-03      0.2818450911E-02

    ------------------------------------------------
       NWT REQUIRED            4 OUTER ITERATIONS 
       AND A TOTAL OF          7 INNER ITERATIONS.
    ------------------------------------------------

 NO OUTPUT CONTROL FOR STRESS PERIOD   10   TIME STEP    4
 
 SOLVING FOR HEAD 
                                                   Max.-Head-Change                         Max.-Flux-Residual
  Residual-Control   Outer-Iter.   Inner-Iter.     Column Row Layer    Maximum-Head-Change  Column Row Layer    Maximum-Flux-Residual          L2-NORM 
          0                 1           2             5    7     1       0.6115859644E-01       5    6    1         0.3308592597E+01      0.9554782078E+01
          0                 2           2             5    7     1      -0.5949003414E-02       5    6    1        -0.3308516762E+00      0.9554512444E+00
          0                 3           2             5    7     1       0.4051056894E-03       5    6    1         0.2315970022E-01      0.6688099355E-01
          0                 4           1             5    7     1      -0.1611953409E-04       5    6    1        -0.9472327172E-03      0.2735373959E-02

    ------------------------------------------------
       NWT REQUIRED            4 OUTER ITERATIONS 
       AND A TOTAL OF          7 INNER ITERATIONS.
    ------------------------------------------------

 NO OUTPUT CONTROL FOR STRESS PERIOD   10   TIME STEP    5
 
 SOLVING FOR HEAD 
                                                   Max.-Head-Change                         Max.-Flux-Residual
  Residual-Control   Outer-Iter.   Inner-Iter.     Column Row Layer    Maximum-Head-Change  Column Row Layer    Maximum-Flux-Residual          L2-NORM 
          0                 1           2             5    7     1       0.5974677832E-01       5    7    1         0.3178464936E+01      0.9279235201E+01
          0                 2           2             5    7     1      -0.5811680071E-02       5    7    1        -0.3178429988E+00      0.9278989036E+00
          0                 3           2             5    7     1       0.3957544002E-03       5    7    1         0.2224905373E-01      0.6495235915E-01
          0                 4           1             5    7     1      -0.1574743823E-04       5    7    1        -0.9099874194E-03      0.2656487465E-02

    ------------------------------------------------
       NWT REQUIRED            4 OUTER ITERATIONS 
       AND A TOTAL OF          7 INNER ITERATIONS.
    ------------------------------------------------

 NO OUTPUT CONTROL FOR STRESS PERIOD   10   TIME STEP    6
 
 SOLVING FOR HEAD 
                                                   Max.-Head-Change                         Max.-Flux-Residual
  Residual-Control   Outer-Iter.   Inner-Iter.     Column Row Layer    Maximum-Head-Change  Column Row Layer    Maximum-Flux-Residual          L2-NORM 
          0                 1           2             5    7     1       0.5836226854E-01       5    7    1         0.3105092263E+01      0.9017309519E+01
          0                 2           2             5    7     1      -0.5677012090E-02       5    7    1        -0.3105062086E+00      0.9017085416E+00
          0                 3           2             5    7     1       0.3865839408E-03       5    7    1         0.2173547368E-01      0.6311910005E-01
          0                 4           1             5    7     1      -0.1538253739E-04       5    7    1        -0.8889819787E-03      0.2581518167E-02

    ------------------------------------------------
       NWT REQUIRED            4 OUTER ITERATIONS 
       AND A TOTAL OF          7 INNER ITERATIONS.
    ------------------------------------------------

 NO OUTPUT CONTROL FOR STRESS PERIOD   10   TIME STEP    7
 
 SOLVING FOR HEAD 
                                                   Max.-Head-Change                         Max.-Flux-Residual
  Residual-Control   Outer-Iter.   Inner-Iter.     Column Row Layer    Maximum-Head-Change  Column Row Layer    Maximum-Flux-Residual          L2-NORM 
          0                 1           2             5    7     1       0.5700584145E-01       5    7    1         0.3033135504E+01      0.8768077083E+01
          0                 2           2             5    7     1      -0.5545074920E-02       5    7    1        -0.3033109507E+00      0.8767872781E+00
          0                 3           2             5    7     1       0.3775994479E-03       5    7    1         0.2123180145E-01      0.6137464366E-01
          0                 4           1             5    7     1      -0.1502503603E-04       5    7    1        -0.8683817728E-03      0.2510203630E-02

    ------------------------------------------------
       NWT REQUIRED            4 OUTER ITERATIONS 
       AND A TOTAL OF          7 INNER ITERATIONS.
    ------------------------------------------------

 NO OUTPUT CONTROL FOR STRESS PERIOD   10   TIME STEP    8
 
 SOLVING FOR HEAD 
                                                   Max.-Head-Change                         Max.-Flux-Residual
  Residual-Control   Outer-Iter.   Inner-Iter.     Column Row Layer    Maximum-Head-Change  Column Row Layer    Maximum-Flux-Residual          L2-NORM 
          0                 1           2             4    7     1       0.5604073481E-01       5    7    1         0.2962642961E+01      0.8530680922E+01
          0                 2           2             4    7     1      -0.5451222171E-02       5    7    1        -0.2962620628E+00      0.8530494648E+00
          0                 3           2             4    7     1       0.3712081714E-03       5    7    1         0.2073837564E-01      0.5971308476E-01
          0                 4           1             4    7     1      -0.1477071950E-04       5    7    1        -0.8482006390E-03      0.2442273105E-02

    ------------------------------------------------
       NWT REQUIRED            4 OUTER ITERATIONS 
       AND A TOTAL OF          7 INNER ITERATIONS.
    ------------------------------------------------

 NO OUTPUT CONTROL FOR STRESS PERIOD   10   TIME STEP    9
 
 SOLVING FOR HEAD 
                                                   Max.-Head-Change                         Max.-Flux-Residual
  Residual-Control   Outer-Iter.   Inner-Iter.     Column Row Layer    Maximum-Head-Change  Column Row Layer    Maximum-Flux-Residual          L2-NORM 
          0                 1           2             5    8     1       0.9046121770E-01       5    8    1         0.4939945996E+01      0.9289282500E+01
          0                 2           2             5    8     1      -0.8794970222E-02       5    8    1        -0.4937441727E+00      0.9287768088E+00
          0                 3           2             5    8     1       0.5984739442E-03       5    8    1         0.3453695990E-01      0.6500068661E-01
          0                 4           1             5    8     1      -0.2378538273E-04       5    8    1        -0.1410857504E-02      0.2657577064E-02

    ------------------------------------------------
       NWT REQUIRED            4 OUTER ITERATIONS 
       AND A TOTAL OF          7 INNER ITERATIONS.
    ------------------------------------------------

 NO OUTPUT CONTROL FOR STRESS PERIOD   10   TIME STEP   10
 
 SOLVING FOR HEAD 
                                                   Max.-Head-Change                         Max.-Flux-Residual
  Residual-Control   Outer-Iter.   Inner-Iter.     Column Row Layer    Maximum-Head-Change  Column Row Layer    Maximum-Flux-Residual          L2-NORM 
          0                 1           2             5    8     1       0.8839092735E-01       5    8    1         0.4824124414E+01      0.9077566193E+01
          0                 2           2             5    8     1      -0.8593691935E-02       5    8    1        -0.4821679448E+00      0.9076098922E+00
          0                 3           2             5    8     1       0.5847774762E-03       5    8    1         0.3372719725E-01      0.6351932920E-01
          0                 4           1             5    8     1      -0.2324103894E-04       5    8    1        -0.1377777225E-02      0.2596995318E-02

    ------------------------------------------------
       NWT REQUIRED            4 OUTER ITERATIONS 
       AND A TOTAL OF          7 INNER ITERATIONS.
    ------------------------------------------------

 NO OUTPUT CONTROL FOR STRESS PERIOD   10   TIME STEP   11
 
 SOLVING FOR HEAD 
                                                   Max.-Head-Change                         Max.-Flux-Residual
  Residual-Control   Outer-Iter.   Inner-Iter.     Column Row Layer    Maximum-Head-Change  Column Row Layer    Maximum-Flux-Residual          L2-NORM 
          0                 1           2             5    8     1       0.8423403496E-01       5    8    1         0.4593285337E+01      0.8812331256E+01
          0                 2           2             5    8     1      -0.8189534442E-02       5    8    1        -0.4590948929E+00      0.8810961759E+00
          0                 3           2             5    8     1       0.5572757449E-03       5    8    1         0.3211324471E-01      0.6166426681E-01
          0                 4           1             5    8     1      -0.2214802637E-04       5    8    1        -0.1311844835E-02      0.2521219197E-02

    ------------------------------------------------
       NWT REQUIRED            4 OUTER ITERATIONS 
       AND A TOTAL OF          7 INNER ITERATIONS.
    ------------------------------------------------

 NO OUTPUT CONTROL FOR STRESS PERIOD   10   TIME STEP   12
 
 SOLVING FOR HEAD 
                                                   Max.-Head-Change                         Max.-Flux-Residual
  Residual-Control   Outer-Iter.   Inner-Iter.     Column Row Layer    Maximum-Head-Change  Column Row Layer    Maximum-Flux-Residual          L2-NORM 
          0                 1           2             5    8     1       0.8034116388E-01       5    8    1         0.4377263872E+01      0.8561833828E+01
          0                 2           2             5    8     1      -0.7811047599E-02       5    8    1        -0.4375029792E+00      0.8560554180E+00
          0                 3           2             5    8     1       0.5315208171E-03       5    8    1         0.3060289749E-01      0.5991221157E-01
          0                 4           1             5    8     1      -0.2112443850E-04       5    8    1        -0.1250144965E-02      0.2449623209E-02

    ------------------------------------------------
       NWT REQUIRED            4 OUTER ITERATIONS 
       AND A TOTAL OF          7 INNER ITERATIONS.
    ------------------------------------------------

 NO OUTPUT CONTROL FOR STRESS PERIOD   10   TIME STEP   13
 
 SOLVING FOR HEAD 
                                                   Max.-Head-Change                         Max.-Flux-Residual
  Residual-Control   Outer-Iter.   Inner-Iter.     Column Row Layer    Maximum-Head-Change  Column Row Layer    Maximum-Flux-Residual          L2-NORM 
          0                 1           2             5    8     1       0.7669317173E-01       5    8    1         0.4174978274E+01      0.8324866523E+01
          0                 2           2             5    8     1       0.1501010116E-01       5    8    1         0.8343831043E+00      0.1102226841E+01
          0                 3           2             5    8     1       0.3704823922E-02       5    8    1         0.2040721793E+00      0.2102567937E+00
          0                 4           1             5    8     1       0.9144356770E-03       5    8    1         0.5048296055E-01      0.5052247968E-01
          0                 5           1             5    8     1       0.2257038321E-03       5    8    1         0.1245476141E-01      0.1245546735E-01
          0                 6           1             5    8     1       0.5570892318E-04       5    8    1         0.3074381940E-02      0.3074481009E-02

    ------------------------------------------------
       NWT REQUIRED            6 OUTER ITERATIONS 
       AND A TOTAL OF          9 INNER ITERATIONS.
    ------------------------------------------------

 NO OUTPUT CONTROL FOR STRESS PERIOD   10   TIME STEP   14
 
 SOLVING FOR HEAD 
                                                   Max.-Head-Change                         Max.-Flux-Residual
  Residual-Control   Outer-Iter.   Inner-Iter.     Column Row Layer    Maximum-Head-Change  Column Row Layer    Maximum-Flux-Residual          L2-NORM 
          0                 1           2             5    8     1       0.7156490496E-01       5    8    1         0.3889808333E+01      0.8065222043E+01
          0                 2           2             5    8     1       0.6808611287E-02       5    8    1         0.3818851684E+00      0.8031129361E+00
          0                 3           2             5    8     1      -0.6619552343E-03       5    8    1        -0.3799792326E-01      0.6244436384E-01
          0                 4           1             5    8     1       0.4504429716E-04       5    8    1         0.2646317072E-02      0.3339167694E-02

    ------------------------------------------------
       NWT REQUIRED            4 OUTER ITERATIONS 
       AND A TOTAL OF          7 INNER ITERATIONS.
    ------------------------------------------------

 NO OUTPUT CONTROL FOR STRESS PERIOD   10   TIME STEP   15
 
 SOLVING FOR HEAD 
                                                   Max.-Head-Change                         Max.-Flux-Residual
  Residual-Control   Outer-Iter.   Inner-Iter.     Column Row Layer    Maximum-Head-Change  Column Row Layer    Maximum-Flux-Residual          L2-NORM 
          0                 1           2             5    8     1       0.6766990602E-01       5    8    1         0.3673760555E+01      0.7839924545E+01
          0                 2           2             5    8     1      -0.6579077261E-02       5    8    1        -0.3671860062E+00      0.7838934896E+00
          0                 3           2             5    8     1       0.4476888130E-03       5    8    1         0.2568424618E-01      0.5486354463E-01
          0                 4           1             5    8     1      -0.1779266946E-04       5    8    1        -0.1049210740E-02      0.2243298658E-02

    ------------------------------------------------
       NWT REQUIRED            4 OUTER ITERATIONS 
       AND A TOTAL OF          7 INNER ITERATIONS.
    ------------------------------------------------

 NO OUTPUT CONTROL FOR STRESS PERIOD   10   TIME STEP   16
 
 SOLVING FOR HEAD 
                                                   Max.-Head-Change                         Max.-Flux-Residual
  Residual-Control   Outer-Iter.   Inner-Iter.     Column Row Layer    Maximum-Head-Change  Column Row Layer    Maximum-Flux-Residual          L2-NORM 
          0                 1           2             5    8     1       0.6482455583E-01       5    8    1         0.3516512408E+01      0.7641842014E+01
          0                 2           2             5    8     1      -0.6302439522E-02       5    8    1        -0.3514688975E+00      0.7640913151E+00
          0                 3           2             5    8     1       0.4288643880E-03       5    8    1         0.2458484074E-01      0.5347793917E-01
          0                 4           1             5    8     1      -0.1704452311E-04       5    8    1        -0.1004298663E-02      0.2186673073E-02

    ------------------------------------------------
       NWT REQUIRED            4 OUTER ITERATIONS 
       AND A TOTAL OF          7 INNER ITERATIONS.
    ------------------------------------------------

 NO OUTPUT CONTROL FOR STRESS PERIOD   10   TIME STEP   17
 
 SOLVING FOR HEAD 
                                                   Max.-Head-Change                         Max.-Flux-Residual
  Residual-Control   Outer-Iter.   Inner-Iter.     Column Row Layer    Maximum-Head-Change  Column Row Layer    Maximum-Flux-Residual          L2-NORM 
          0                 1           2             5    8     1       0.6214705658E-01       5    8    1         0.3368648242E+01      0.7453048913E+01
          0                 2           2             5    8     1      -0.6042121420E-02       5    8    1        -0.3366897615E+00      0.7452176396E+00
          0                 3           2             5    8     1       0.4111504641E-03       5    8    1         0.2355104636E-01      0.5215727874E-01
          0                 4           1             5    8     1      -0.1634051162E-04       5    8    1        -0.9620669002E-03      0.2132687901E-02

    ------------------------------------------------
       NWT REQUIRED            4 OUTER ITERATIONS 
       AND A TOTAL OF          7 INNER ITERATIONS.
    ------------------------------------------------

 NO OUTPUT CONTROL FOR STRESS PERIOD   10   TIME STEP   18
 
 SOLVING FOR HEAD 
                                                   Max.-Head-Change                         Max.-Flux-Residual
  Residual-Control   Outer-Iter.   Inner-Iter.     Column Row Layer    Maximum-Head-Change  Column Row Layer    Maximum-Flux-Residual          L2-NORM 
          0                 1           2             5    8     1       0.5962587500E-01       5    8    1         0.3229518144E+01      0.7272879353E+01
          0                 2           2             5    8     1      -0.5797001565E-02       5    8    1        -0.3227836331E+00      0.7272059027E+00
          0                 3           2             5    8     1       0.3944707353E-03       5    8    1         0.2257831876E-01      0.5089691400E-01
          0                 4           1             5    8     1      -0.1567760287E-04       5    8    1        -0.9223298368E-03      0.2081173831E-02

    ------------------------------------------------
       NWT REQUIRED            4 OUTER ITERATIONS 
       AND A TOTAL OF          7 INNER ITERATIONS.
    ------------------------------------------------

 NO OUTPUT CONTROL FOR STRESS PERIOD   10   TIME STEP   19
 
 SOLVING FOR HEAD 
                                                   Max.-Head-Change                         Max.-Flux-Residual
  Residual-Control   Outer-Iter.   Inner-Iter.     Column Row Layer    Maximum-Head-Change  Column Row Layer    Maximum-Flux-Residual          L2-NORM 
          0                 1           2             4    8     1       0.8787889431E-01       4    8    1         0.4703626682E+01      0.8160144533E+01
          0                 2           2             4    8     1      -0.6497639608E-02       4    8    1        -0.3559597216E+00      0.7557976565E+00
          0                 3           2             4    8     1      -0.1591680537E-02       4    8    1        -0.8926181481E-01      0.1007230204E+00
          0                 4           2             4    8     1       0.1083240634E-03       4    8    1         0.6232760220E-02      0.6526267529E-02
          0                 5           1             4    8     1      -0.4306109061E-05       4    8    1        -0.2541994095E-03      0.2555926654E-03

    ------------------------------------------------
       NWT REQUIRED            5 OUTER ITERATIONS 
       AND A TOTAL OF          9 INNER ITERATIONS.
    ------------------------------------------------

 NO OUTPUT CONTROL FOR STRESS PERIOD   10   TIME STEP   20
 
 SOLVING FOR HEAD 
                                                   Max.-Head-Change                         Max.-Flux-Residual
  Residual-Control   Outer-Iter.   Inner-Iter.     Column Row Layer    Maximum-Head-Change  Column Row Layer    Maximum-Flux-Residual          L2-NORM 
          0                 1           2             4    8     1       0.8791913778E-01       5    7    1         0.4721904557E+01      0.9001433195E+01
          0                 2           2             4    8     1       0.2150893268E-01       4    8    1         0.1173932715E+01      0.1402370691E+01
          0                 3           2             4    8     1       0.5436436625E-02       4    8    1         0.2945594488E+00      0.2994672442E+00
          0                 4           2             4    8     1       0.1374076641E-02       4    8    1         0.7458284526E-01      0.7461190236E-01
          0                 5           2             4    8     1       0.3473022885E-03       4    8    1         0.1884509429E-01      0.1884565983E-01
          0                 6           1             4    8     1       0.8778178314E-04       4    8    1         0.4763418887E-02      0.4763491725E-02

    ------------------------------------------------
       NWT REQUIRED            6 OUTER ITERATIONS 
       AND A TOTAL OF         11 INNER ITERATIONS.
    ------------------------------------------------

 NO OUTPUT CONTROL FOR STRESS PERIOD   10   TIME STEP   21
 
 SOLVING FOR HEAD 
                                                   Max.-Head-Change                         Max.-Flux-Residual
  Residual-Control   Outer-Iter.   Inner-Iter.     Column Row Layer    Maximum-Head-Change  Column Row Layer    Maximum-Flux-Residual          L2-NORM 
          0                 1           2             5    7     1       0.8706162452E-01       5    7    1         0.4687578417E+01      0.9013410302E+01
          0                 2           2             5    7     1       0.1864825947E-01       5    7    1         0.1027284581E+01      0.1372802983E+01
          0                 3           2             5    7     1       0.4666921931E-02       5    7    1         0.2544954118E+00      0.3092010948E+00
          0                 4           2             5    7     1       0.1168266986E-02       5    7    1         0.6385172581E-01      0.7721600962E-01
          0                 5           2             5    7     1       0.2925287081E-03       5    7    1         0.1597828523E-01      0.1943039088E-01
          0                 6           1             5    7     1       0.7326665664E-04       5    7    1         0.4001479309E-02      0.4892854315E-02

    ------------------------------------------------
       NWT REQUIRED            6 OUTER ITERATIONS 
       AND A TOTAL OF         11 INNER ITERATIONS.
    ------------------------------------------------

 NO OUTPUT CONTROL FOR STRESS PERIOD   10   TIME STEP   22
 
 SOLVING FOR HEAD 
                                                   Max.-Head-Change                         Max.-Flux-Residual
  Residual-Control   Outer-Iter.   Inner-Iter.     Column Row Layer    Maximum-Head-Change  Column Row Layer    Maximum-Flux-Residual          L2-NORM 
          0                 1           2             5    7     1       0.8280297894E-01       5    7    1         0.4426954287E+01      0.9341608333E+01
          0                 2           2             4    8     1      -0.7891875210E-02       4    8    1        -0.4335769028E+00      0.7340448143E+00
          0                 3           2             4    8     1       0.5370102049E-03       4    8    1         0.3032783107E-01      0.5136149531E-01
          0                 4           1             4    8     1      -0.2134190314E-04       4    8    1        -0.1238879123E-02      0.2099217023E-02

    ------------------------------------------------
       NWT REQUIRED            4 OUTER ITERATIONS 
       AND A TOTAL OF          7 INNER ITERATIONS.
    ------------------------------------------------

 NO OUTPUT CONTROL FOR STRESS PERIOD   10   TIME STEP   23
 
 SOLVING FOR HEAD 
                                                   Max.-Head-Change                         Max.-Flux-Residual
  Residual-Control   Outer-Iter.   Inner-Iter.     Column Row Layer    Maximum-Head-Change  Column Row Layer    Maximum-Flux-Residual          L2-NORM 
          0                 1           2             5    7     1       0.8013000940E-01       5    7    1         0.4281359444E+01      0.9104044899E+01
          0                 2           2             5    7     1      -0.7635473564E-02       5    7    1        -0.4279163461E+00      0.9139304637E+00
          0                 3           2             5    8     1       0.1299228346E-02       5    8    1         0.7087234702E-01      0.9315533178E-01
          0                 4           1             5    8     1       0.3206658699E-03       5    8    1         0.1773185720E-01      0.1789551248E-01
          0                 5           1             5    8     1       0.7914413460E-04       5    8    1         0.4367066020E-02      0.4367550936E-02

    ------------------------------------------------
       NWT REQUIRED            5 OUTER ITERATIONS 
       AND A TOTAL OF          8 INNER ITERATIONS.
    ------------------------------------------------

 NO OUTPUT CONTROL FOR STRESS PERIOD   10   TIME STEP   24
 
 SOLVING FOR HEAD 
                                                   Max.-Head-Change                         Max.-Flux-Residual
  Residual-Control   Outer-Iter.   Inner-Iter.     Column Row Layer    Maximum-Head-Change  Column Row Layer    Maximum-Flux-Residual          L2-NORM 
          0                 1           2             5    7     1       0.7814590152E-01       5    7    1         0.4174560320E+01      0.8883196442E+01
          0                 2           2             5    8     1       0.1308368332E-01       5    8    1         0.7340390986E+00      0.1117388355E+01
          0                 3           2             5    8     1       0.3229162147E-02       5    8    1         0.1774085286E+00      0.1870396035E+00
          0                 4           1             5    8     1       0.7969909843E-03       5    8    1         0.4402106506E-01      0.4408031010E-01
          0                 5           1             5    8     1       0.1967055457E-03       5    8    1         0.1085607385E-01      0.1085655521E-01
          0                 6           1             5    8     1       0.4854895995E-04       5    8    1         0.2679247328E-02      0.2679397130E-02

    ------------------------------------------------
       NWT REQUIRED            6 OUTER ITERATIONS 
       AND A TOTAL OF          9 INNER ITERATIONS.
    ------------------------------------------------

 NO OUTPUT CONTROL FOR STRESS PERIOD   10   TIME STEP   25
 
 SOLVING FOR HEAD 
                                                   Max.-Head-Change                         Max.-Flux-Residual
  Residual-Control   Outer-Iter.   Inner-Iter.     Column Row Layer    Maximum-Head-Change  Column Row Layer    Maximum-Flux-Residual          L2-NORM 
          0                 1           2             4    7     1       0.9498949287E-01       4    7    1         0.5033146278E+01      0.9631059706E+01
          0                 2           2             4    7     1      -0.9232652371E-02       4    7    1        -0.5030546430E+00      0.9268952980E+00
          0                 3           2             4    7     1       0.6282399737E-03       4    7    1         0.3518741147E-01      0.6498239490E-01
          0                 4           1             4    7     1      -0.2496728935E-04       4    7    1        -0.1437376287E-02      0.2674394600E-02

    ------------------------------------------------
       NWT REQUIRED            4 OUTER ITERATIONS 
       AND A TOTAL OF          7 INNER ITERATIONS.
    ------------------------------------------------

 NO OUTPUT CONTROL FOR STRESS PERIOD   10   TIME STEP   26
 
 SOLVING FOR HEAD 
                                                   Max.-Head-Change                         Max.-Flux-Residual
  Residual-Control   Outer-Iter.   Inner-Iter.     Column Row Layer    Maximum-Head-Change  Column Row Layer    Maximum-Flux-Residual          L2-NORM 
          0                 1           2             4    7     1       0.9594604866E-01       4    7    1         0.5086860071E+01      0.9511375095E+01
          0                 2           2             5    7     1      -0.7179628506E-02       5    7    1        -0.4005150077E+00      0.8143206149E+00
          0                 3           2             4    7     1       0.5534299789E-03       4    7    1         0.2917274859E-01      0.6337533390E-01
          0                 4           1             4    7     1       0.1392827895E-03       4    7    1         0.7620223921E-02      0.7950769805E-02
          0                 5           1             4    7     1       0.3505335623E-04       4    7    1         0.1907350736E-02      0.1907803983E-02

    ------------------------------------------------
       NWT REQUIRED            5 OUTER ITERATIONS 
       AND A TOTAL OF          8 INNER ITERATIONS.
    ------------------------------------------------

 NO OUTPUT CONTROL FOR STRESS PERIOD   10   TIME STEP   27
 
 SOLVING FOR HEAD 
                                                   Max.-Head-Change                         Max.-Flux-Residual
  Residual-Control   Outer-Iter.   Inner-Iter.     Column Row Layer    Maximum-Head-Change  Column Row Layer    Maximum-Flux-Residual          L2-NORM 
          0                 1           2             4    7     1       0.9347008897E-01       4    7    1         0.4953351657E+01      0.9312280590E+01
          0                 2           2             4    7     1       0.2198986550E-01       4    7    1         0.1210594731E+01      0.1444590173E+01
          0                 3           2             4    7     1      -0.2137892050E-02       4    7    1        -0.1206137280E+00      0.1328816257E+00
          0                 4           1             4    7     1       0.1454772818E-03       4    7    1         0.8410934542E-02      0.8730413671E-02
          0                 5           1             4    7     1      -0.5781687713E-05       4    7    1        -0.3425647797E-03      0.3442608487E-03

    ------------------------------------------------
       NWT REQUIRED            5 OUTER ITERATIONS 
       AND A TOTAL OF          8 INNER ITERATIONS.
    ------------------------------------------------

 NO OUTPUT CONTROL FOR STRESS PERIOD   10   TIME STEP   28
 
 SOLVING FOR HEAD 
                                                   Max.-Head-Change                         Max.-Flux-Residual
  Residual-Control   Outer-Iter.   Inner-Iter.     Column Row Layer    Maximum-Head-Change  Column Row Layer    Maximum-Flux-Residual          L2-NORM 
          0                 1           2             4    7     1       0.9024944357E-01       4    7    1         0.4778750808E+01      0.9111039789E+01
          0                 2           2             4    8     1       0.1427282941E-01       4    8    1         0.7838836228E+00      0.1139251795E+01
          0                 3           2             4    8     1       0.3607318398E-02       4    8    1         0.1951199195E+00      0.2035860482E+00
          0                 4           2             4    8     1       0.9117189709E-03       4    8    1         0.4950282561E-01      0.4955396463E-01
          0                 5           2             4    8     1       0.2304290635E-03       4    8    1         0.1250402909E-01      0.1250443215E-01
          0                 6           1             4    8     1       0.5823895896E-04       4    8    1         0.3160373330E-02      0.3160445007E-02

    ------------------------------------------------
       NWT REQUIRED            6 OUTER ITERATIONS 
       AND A TOTAL OF         11 INNER ITERATIONS.
    ------------------------------------------------

 NO OUTPUT CONTROL FOR STRESS PERIOD   10   TIME STEP   29
 
 SOLVING FOR HEAD 
                                                   Max.-Head-Change                         Max.-Flux-Residual
  Residual-Control   Outer-Iter.   Inner-Iter.     Column Row Layer    Maximum-Head-Change  Column Row Layer    Maximum-Flux-Residual          L2-NORM 
          0                 1           2             4    7     1       0.8946777980E-01       4    7    1         0.4707205032E+01      0.9691447445E+01
          0                 2           2             5    7     1       0.1026198470E-01       5    7    1         0.5825596976E+00      0.1118491924E+01
          0                 3           2             5    7     1       0.2531190045E-02       5    7    1         0.1386628177E+00      0.1581671152E+00
          0                 4           2             5    7     1       0.6243402984E-03       5    7    1         0.3451843947E-01      0.3476374998E-01
          0                 5           2             5    7     1       0.1539987768E-03       5    7    1         0.8501905164E-02      0.8503720737E-02
          0                 6           1             5    7     1       0.3798510348E-04       5    7    1         0.2096972707E-02      0.2097153240E-02

    ------------------------------------------------
       NWT REQUIRED            6 OUTER ITERATIONS 
       AND A TOTAL OF         11 INNER ITERATIONS.
    ------------------------------------------------

 NO OUTPUT CONTROL FOR STRESS PERIOD   10   TIME STEP   30



 STREAM LISTING     PERIOD     10   STEP       30

 LAYER ROW COL. STREAM  RCH.  FLOW INTO     FLOW TO   FLOW OUT OF   OVRLND.     DIRECT     STREAM       STREAM     STREAM     STREAM   STREAMBED  STREAMBED
                SEG.NO.  NO.  STRM. RCH.    AQUIFER    STRM. RCH.    RUNOFF     PRECIP       ET          HEAD       DEPTH      WIDTH   CONDCTNC.   GRADIENT

   1    1    1     1     1    4.7000E+01  3.2684E-01   4.6673E+01  0.000E+00  0.000E+00  0.000E+00  1.09443E+03  1.380E+00  1.658E+01  7.462E-02  1.460E+00
   1    2    2     1     2    4.6673E+01  5.0637E-01   4.6166E+01  0.000E+00  0.000E+00  0.000E+00  1.08944E+03  1.377E+00  1.653E+01  1.157E-01  1.459E+00
   1    3    3     1     3    4.6166E+01  4.3205E-01   4.5734E+01  0.000E+00  0.000E+00  0.000E+00  1.08379E+03  1.374E+00  1.646E+01  9.878E-02  1.458E+00
   1    3    4     1     4    4.5734E+01  3.9802E-01   4.5336E+01  0.000E+00  0.000E+00  0.000E+00  1.07878E+03  1.371E+00  1.641E+01  9.105E-02  1.457E+00
   1    4    5     2     1    4.3336E+01  3.6469E-01   4.2972E+01  0.000E+00  0.000E+00  0.000E+00  1.07361E+03  1.676E+00  1.200E+01  7.800E-02  1.559E+00
   1    5    6     2     2    4.2972E+01  2.8008E-01   4.2692E+01  0.000E+00  0.000E+00  0.000E+00  1.06818E+03  1.668E+00  1.200E+01  6.000E-02  1.556E+00
   1    6    6     2     3    4.2692E+01  2.7969E-01   4.2412E+01  0.000E+00  0.000E+00  0.000E+00  1.06345E+03  1.661E+00  1.200E+01  6.000E-02  1.554E+00
   1    7    6     2     4    4.2412E+01  2.7930E-01   4.2133E+01  0.000E+00  0.000E+00  0.000E+00  1.05873E+03  1.655E+00  1.200E+01  6.000E-02  1.552E+00
   1    8    6     2     5    4.2133E+01  2.7890E-01   4.1854E+01  0.000E+00  0.000E+00  0.000E+00  1.05401E+03  1.648E+00  1.200E+01  6.000E-02  1.549E+00
   1    3    5     3     1    2.0000E+00  2.8252E-01   1.7175E+00  0.000E+00  0.000E+00  0.000E+00  1.07555E+03  1.909E+00  9.636E+00  7.227E-02  1.955E+00
   1    3    6     3     2    1.7175E+00  2.4905E-01   1.4684E+00  0.000E+00  0.000E+00  0.000E+00  1.07264E+03  1.727E+00  8.909E+00  6.682E-02  1.864E+00
   1    3    7     3     3    1.4684E+00  1.9718E-01   1.2712E+00  0.000E+00  0.000E+00  0.000E+00  1.06987E+03  1.555E+00  8.218E+00  5.547E-02  1.777E+00
   1    4    8     3     4    1.2712E+00  2.2567E-01   1.0456E+00  0.000E+00  0.000E+00  0.000E+00  1.06682E+03  1.364E+00  7.455E+00  6.709E-02  1.682E+00
   1    5    8     3     5    1.0456E+00  1.5790E-01   8.8768E-01  0.000E+00  0.000E+00  0.000E+00  1.06362E+03  1.164E+00  6.655E+00  4.991E-02  1.582E+00
   1    6    8     3     6    8.8768E-01  5.5980E-02   8.3170E-01  0.000E+00  0.000E+00  0.000E+00  1.06158E+03  1.036E+00  6.145E+00  1.844E-02  1.518E+00
   1    5   10     4     1    1.0000E+01  9.0919E-02   9.9091E+00  0.000E+00  0.000E+00  0.000E+00  1.07836E+03  6.368E-01  1.000E+01  2.500E-02  1.212E+00
   1    5    9     4     2    9.9091E+00  1.8158E-01   9.7275E+00  0.000E+00  0.000E+00  0.000E+00  1.07154E+03  6.315E-01  1.000E+01  5.000E-02  1.211E+00
   1    6    8     4     3    9.7275E+00  1.2689E-01   9.6006E+00  0.000E+00  0.000E+00  0.000E+00  1.06381E+03  6.256E-01  1.000E+01  3.500E-02  1.209E+00
   1    6    8     5     1    1.0432E+01  2.2686E-01   1.0205E+01  0.000E+00  0.000E+00  0.000E+00  1.05868E+03  6.790E-01  1.542E+01  6.166E-02  1.226E+00
   1    7    7     5     2    1.0205E+01  2.7894E-01   9.9265E+00  0.000E+00  0.000E+00  0.000E+00  1.05417E+03  6.732E-01  1.519E+01  7.594E-02  1.224E+00
   1    8    7     5     3    9.9265E+00  1.9221E-01   9.7343E+00  0.000E+00  0.000E+00  0.000E+00  1.04992E+03  6.676E-01  1.497E+01  5.241E-02  1.223E+00
   1    8    6     5     4    9.7343E+00  1.3577E-01   9.5985E+00  0.000E+00  0.000E+00  0.000E+00  1.04691E+03  6.637E-01  1.482E+01  3.706E-02  1.221E+00
   1    9    6     6     1    5.1452E+01  2.9278E-01   5.1159E+01  0.000E+00  0.000E+00  0.000E+00  1.04461E+03  1.880E+00  1.200E+01  6.000E-02  1.627E+00
   1   10    7     6     2    5.1159E+01  2.9239E-01   5.0867E+01  0.000E+00  0.000E+00  0.000E+00  1.04005E+03  1.873E+00  1.200E+01  6.000E-02  1.624E+00
   1   11    7     6     3    5.0867E+01  2.9200E-01   5.0575E+01  0.000E+00  0.000E+00  0.000E+00  1.03550E+03  1.867E+00  1.200E+01  6.000E-02  1.622E+00
   1   12    7     6     4    5.0575E+01  2.9162E-01   5.0283E+01  0.000E+00  0.000E+00  0.000E+00  1.03095E+03  1.860E+00  1.200E+01  6.000E-02  1.620E+00
   1   13    7     6     5    5.0283E+01  1.2618E-02   5.0271E+01  0.000E+00  0.000E+00  0.000E+00  1.02777E+03  1.857E+00  1.200E+01  2.400E-02  1.753E-01
   1   14    9     7     1    1.5000E+02  1.3307E+00   1.4867E+02  0.000E+00  0.000E+00  0.000E+00  1.03987E+03  2.288E+00  5.529E+01  5.593E-01  7.931E-01
   1   13    8     7     2    1.4867E+02  1.7940E+00   1.4688E+02  0.000E+00  0.000E+00  0.000E+00  1.03478E+03  2.279E+00  5.526E+01  6.148E-01  9.727E-01
   1   13    7     7     3    1.4688E+02  1.3683E+00   1.4551E+02  0.000E+00  0.000E+00  0.000E+00  1.02969E+03  2.271E+00  5.522E+01  5.585E-01  8.167E-01
   1   13    6     8     1    1.9578E+02  9.1827E-01   1.9486E+02  0.000E+00  0.000E+00  0.000E+00  1.02498E+03  3.110E+00  4.509E+01  4.595E-01  6.661E-01
   1   13    5     8     2    1.9486E+02  1.4273E-01   1.9472E+02  0.000E+00  0.000E+00  0.000E+00  1.01873E+03  3.107E+00  4.505E+01  4.591E-01  1.036E-01
   1   13    4     8     3    1.9472E+02 -2.4980E+00   1.9721E+02  0.000E+00  0.000E+00  0.000E+00  1.01249E+03  3.114E+00  4.515E+01  4.601E+00 -1.810E-01
   1   13    3     8     4    1.9721E+02 -3.6170E+00   2.0083E+02  0.000E+00  0.000E+00  0.000E+00  1.00626E+03  3.132E+00  4.541E+01  4.628E+00 -2.605E-01
   1   13    2     8     5    2.0083E+02 -2.5915E+00   2.0342E+02  0.000E+00  0.000E+00  0.000E+00  1.00003E+03  3.150E+00  4.568E+01  4.655E+00 -1.856E-01
   1   13    1     8     6    2.0342E+02 -2.0170E+00   2.0544E+02  0.000E+00  0.000E+00  0.000E+00  9.95039E+02  3.164E+00  4.587E+01  2.805E+00 -2.397E-01





UNSATURATED ZONE PACKAGE VOLUMETRIC BUDGET FOR  TIME STEP    30 STRESS PERIOD   10
  ------------------------------------------------------------------------------



     CUMULATIVE VOLUMES      L**3       RATES FOR THIS TIME STEP      L**3/T
     ------------------                 ------------------------

           IN:                                      IN:
           ---                                      ---
        INFILTRATION =   455176042.4782          INFILTRATION =          12.0675

          OUT:                                     OUT:
          ----                                     ----
              UZF ET =   417175332.5022                UZF ET =          12.0675
        UZF RECHARGE =    13380354.4375          UZF RECHARGE =          16.3601

            IN - OUT =    24620355.5385              IN - OUT =         -16.3601

          STORAGE:                                 STORAGE:
          --------                                 --------
      STORAGE CHANGE =    24620357.4808        STORAGE CHANGE =         -16.3601

 PERCENT DISCREPANCY IS DIFFERENCE BETWEEN IN-OUT MINUS CHANGE IN STORAGE
 DIVIDED BY THE AVERAGE OF IN AND OUT TIMES 100

 PERCENT DISCREPANCY =           0.00     PERCENT DISCREPANCY =           0.00






1
  VOLUMETRIC BUDGET FOR AGRICULTURAL FIELDS AT  END OF TIME STEP   30, STRESS PERIOD  10
  ------------------------------------------------------------------------------

     CUMULATIVE VOLUMES      L**3       RATES FOR THIS TIME STEP      L**3/T
     ------------------                 ------------------------

           IN:                                      IN:
           ---                                      ---
               AG WELLS  =   435042048.0000                 AG WELLS  =          11.2200
      DIVERSION SEGMENTS =           0.0000        DIVERSION SEGMENTS =           0.0000
           GW IRRIGATION =           0.0000             GW IRRIGATION =           0.0000
           SW IRRIGATION =           0.0000             SW IRRIGATION =           0.0000
        SYSTEM LOSSES GW =           0.0000          SYSTEM LOSSES GW =           0.0000
        SYSTEM LOSSES SW =           0.0000          SYSTEM LOSSES SW =           0.0000

                TOTAL IN =   435042048.0000                  TOTAL IN =          11.2200

          OUT:                                     OUT:
          ----                                     ----
               AG WELLS  =           0.0000                 AG WELLS  =           0.0000
      DIVERSION SEGMENTS =           0.0000        DIVERSION SEGMENTS =           0.0000
           GW IRRIGATION =   435042048.0000             GW IRRIGATION =          11.2200
           SW IRRIGATION =           0.0000             SW IRRIGATION =           0.0000
        SYSTEM LOSSES GW =           0.0000          SYSTEM LOSSES GW =           0.0000
        SYSTEM LOSSES SW =           0.0000          SYSTEM LOSSES SW =           0.0000

               TOTAL OUT =   435042048.0000                 TOTAL OUT =          11.2200

                IN - OUT =           0.0000                  IN - OUT =           0.0000

     PERCENT DISCREPANCY =           0.00         PERCENT DISCREPANCY =           0.00



1
  VOLUMETRIC BUDGET FOR ENTIRE MODEL AT END OF TIME STEP   30, STRESS PERIOD  10
  ------------------------------------------------------------------------------

     CUMULATIVE VOLUMES      L**3       RATES FOR THIS TIME STEP      L**3/T
     ------------------                 ------------------------

           IN:                                      IN:
           ---                                      ---
             STORAGE     =   472375840.0000               STORAGE     =          17.9902
       CONSTANT HEAD     =           0.0000         CONSTANT HEAD     =           0.0000
     HEAD DEP BOUNDS     =     6781340.0000       HEAD DEP BOUNDS     =           0.2854
      STREAM LEAKAGE     =   302964896.0000        STREAM LEAKAGE     =          12.2829
        UZF RECHARGE     =    13380355.0000          UZF RECHARGE     =          16.3601
               GW ET     =           0.0000                 GW ET     =           0.0000
     SURFACE LEAKAGE     =           0.0000       SURFACE LEAKAGE     =           0.0000
           AG WELLS      =           0.0000             AG WELLS      =           0.0000

                TOTAL IN =   795502464.0000                  TOTAL IN =          46.9185

          OUT:                                     OUT:
          ----                                     ----
             STORAGE     =    98894376.0000               STORAGE     =          24.4167
       CONSTANT HEAD     =           0.0000         CONSTANT HEAD     =           0.0000
     HEAD DEP BOUNDS     =     7020254.0000       HEAD DEP BOUNDS     =           0.2948
      STREAM LEAKAGE     =   240810320.0000        STREAM LEAKAGE     =          10.7235
        UZF RECHARGE     =           0.0000          UZF RECHARGE     =           0.0000
               GW ET     =    13735515.0000                 GW ET     =           0.2629
     SURFACE LEAKAGE     =           0.0000       SURFACE LEAKAGE     =           0.0000
           AG WELLS      =   435042048.0000             AG WELLS      =          11.2200

               TOTAL OUT =   795502528.0000                 TOTAL OUT =          46.9180

                IN - OUT =         -64.0000                  IN - OUT =       5.3406E-04

     PERCENT DISCREPANCY =          -0.00         PERCENT DISCREPANCY =           0.00






         TIME SUMMARY AT END OF TIME STEP   30 IN STRESS PERIOD   10
                    SECONDS     MINUTES      HOURS       DAYS        YEARS
                    -----------------------------------------------------------
   TIME STEP LENGTH  87667.      1461.1      24.352      1.0147     2.77799E-03
 STRESS PERIOD TIME 2.63000E+06  43833.      730.56      30.440     8.33397E-02
         TOTAL TIME 2.37564E+07 3.95940E+05  6599.0      274.96     0.75279    
1
1
                            STRESS PERIOD NO.   11, LENGTH =   2630000.    
                            -----------------------------------------------

                              NUMBER OF TIME STEPS =    30

                               MULTIPLIER FOR DELT =     1.000

                            INITIAL TIME STEP SIZE =   87666.66    

 REUSING NON-PARAMETER GHB CELLS FROM LAST STRESS PERIOD

      2 GHB CELLS

 REUSING STREAM SEGMENT DATA FROM LAST STRESS PERIOD



            AREAL INFILTRATION RATE
 READING ON UNIT   19 WITH FORMAT: (FREE)              

            1           2           3           4           5           6           7           8           9          10
 ........................................................................................................................
   1   1.0000E-10  2.0000E-10   0.000       0.000       0.000       0.000       0.000       0.000       0.000       0.000    
   2   2.0000E-10  1.0000E-10  2.0000E-10   0.000       0.000      8.0000E-10  8.0000E-10  5.0000E-10   0.000       0.000    
   3    0.000      5.0000E-10  1.0000E-10  1.0000E-10  8.0000E-10  8.0000E-10  5.0000E-10  5.0000E-10   0.000       0.000    
   4   8.0000E-10  5.0000E-10  1.0000E-10  1.0000E-10  1.0000E-10  1.0000E-10  1.0000E-10  1.0000E-10  2.0000E-10   0.000    
   5   8.0000E-10  5.0000E-10  1.0000E-10  1.0000E-10  1.0000E-10  1.0000E-10  1.0000E-10  1.0000E-10  1.0000E-10  1.0000E-10
   6   8.0000E-10  5.0000E-10  5.0000E-10  2.0000E-10  2.0000E-10  1.0000E-10  1.0000E-10  1.0000E-10  1.0000E-10  5.0000E-10
   7   8.0000E-10  5.0000E-10  5.0000E-10  2.0000E-10  2.0000E-10  1.0000E-10  1.0000E-10  2.0000E-10  2.0000E-10   0.000    
   8    0.000      5.0000E-10  5.0000E-10  2.0000E-10  2.0000E-10  1.0000E-10  1.0000E-10  2.0000E-10  5.0000E-10   0.000    
   9    0.000      5.0000E-10  5.0000E-10  2.0000E-10  2.0000E-10  1.0000E-10  1.0000E-10  2.0000E-10  5.0000E-10   0.000    
  10    0.000      5.0000E-10  5.0000E-10  2.0000E-10  2.0000E-10  1.0000E-10  1.0000E-10  2.0000E-10  5.0000E-10  8.0000E-10
  11    0.000      1.0000E-10  1.0000E-10  1.0000E-10  1.0000E-10  1.0000E-10  1.0000E-10  2.0000E-10  5.0000E-10   0.000    
  12   1.0000E-10  1.0000E-10  1.0000E-10  1.0000E-10  1.0000E-10  1.0000E-10  1.0000E-10  1.0000E-10  2.0000E-10   0.000    
  13   1.0000E-10  1.0000E-10  2.0000E-10  2.0000E-10  2.0000E-10  2.0000E-10  2.0000E-10  1.0000E-10  1.0000E-10   0.000    
  14    0.000      2.0000E-10  5.0000E-10  5.0000E-10  5.0000E-10  5.0000E-10  5.0000E-10  2.0000E-10  1.0000E-10   0.000    
  15    0.000       0.000      8.0000E-10  8.0000E-10  8.0000E-10  8.0000E-10   0.000       0.000       0.000       0.000    

                  ET RATE =  5.000000E-09

 USING ET EXTINCTION DEPTH FROM PREVIOUS STRESS PERIOD. CURRENT PERIOD IS:      11

 USING EXTINCTION WATER CONTENT FROM PREVIOUS STRESS PERIOD. CURRENT PERIOD IS:      11

 USING AIR ENTRY PRESSURE FROM PREVIOUS STRESS PERIOD. CURRENT PERIOD IS:      11

 USING ROOT PRESSURE HEAD FROM PREVIOUS STRESS PERIOD. CURRENT PERIOD IS:      11

 USING ROOT ACTIVITY FROM PREVIOUS STRESS PERIOD. CURRENT PERIOD IS:      11

 PROCESSING AG STRESS PERIOD DATA

 READING AG STRESS PERIOD DATA

 READING IRRIGATION WELL

 END PROCESSING AG STRESS PERIOD DATA OPTIONS
 
 SOLVING FOR HEAD 
                                                   Max.-Head-Change                         Max.-Flux-Residual
  Residual-Control   Outer-Iter.   Inner-Iter.     Column Row Layer    Maximum-Head-Change  Column Row Layer    Maximum-Flux-Residual          L2-NORM 
          0                 1           2             4    7     1       0.1246887824E+00       4    7    1         0.6546986741E+01      0.1394948765E+02
          0                 2           2             5    6     1       0.1579090625E-01       5    6    1         0.8713342864E+00      0.1593180467E+01
          0                 3           2             5    6     1       0.3898518206E-02       5    6    1         0.2154339394E+00      0.2389965694E+00
          0                 4           2             5    6     1       0.9624830791E-03       5    6    1         0.5307182860E-01      0.5335703707E-01
          0                 5           2             5    6     1       0.2376222225E-03       5    6    1         0.1311449326E-01      0.1311552240E-01
          0                 6           1             5    6     1       0.5866525872E-04       5    6    1         0.3236905388E-02      0.3237054325E-02

    ------------------------------------------------
       NWT REQUIRED            6 OUTER ITERATIONS 
       AND A TOTAL OF         11 INNER ITERATIONS.
    ------------------------------------------------

 NO OUTPUT CONTROL FOR STRESS PERIOD   11   TIME STEP    1
 
 SOLVING FOR HEAD 
                                                   Max.-Head-Change                         Max.-Flux-Residual
  Residual-Control   Outer-Iter.   Inner-Iter.     Column Row Layer    Maximum-Head-Change  Column Row Layer    Maximum-Flux-Residual          L2-NORM 
          0                 1           2             4    7     1       0.1236813132E+00       4    7    1         0.6496806811E+01      0.1367940585E+02
          0                 2           2             4    7     1      -0.1201926043E-01       4    7    1        -0.6493417013E+00      0.1290690415E+01
          0                 3           2             4    7     1       0.8178479925E-03       4    7    1         0.4541953259E-01      0.9093342966E-01
          0                 4           1             4    7     1      -0.3250209780E-04       4    7    1        -0.1855330140E-02      0.3807382908E-02

    ------------------------------------------------
       NWT REQUIRED            4 OUTER ITERATIONS 
       AND A TOTAL OF          7 INNER ITERATIONS.
    ------------------------------------------------

 NO OUTPUT CONTROL FOR STRESS PERIOD   11   TIME STEP    2
 
 SOLVING FOR HEAD 
                                                   Max.-Head-Change                         Max.-Flux-Residual
  Residual-Control   Outer-Iter.   Inner-Iter.     Column Row Layer    Maximum-Head-Change  Column Row Layer    Maximum-Flux-Residual          L2-NORM 
          0                 1           2             4    7     1       0.1223170514E+00       4    7    1         0.6426482613E+01      0.1342955129E+02
          0                 2           2             4    6     1       0.1398496937E-01       4    6    1         0.7688907044E+00      0.1274709556E+01
          0                 3           2             4    6     1       0.3515404779E-02       4    6    1         0.1910362121E+00      0.2044545849E+00
          0                 4           2             4    6     1       0.8840133951E-03       4    6    1         0.4816320142E-01      0.4852293486E-01
          0                 5           2             4    6     1       0.2223877117E-03       4    6    1         0.1210750281E-01      0.1220430493E-01
          0                 6           1             4    6     1       0.5596686095E-04       4    6    1         0.3046104778E-02      0.3078601047E-02

    ------------------------------------------------
       NWT REQUIRED            6 OUTER ITERATIONS 
       AND A TOTAL OF         11 INNER ITERATIONS.
    ------------------------------------------------

 NO OUTPUT CONTROL FOR STRESS PERIOD   11   TIME STEP    3
 
 SOLVING FOR HEAD 
                                                   Max.-Head-Change                         Max.-Flux-Residual
  Residual-Control   Outer-Iter.   Inner-Iter.     Column Row Layer    Maximum-Head-Change  Column Row Layer    Maximum-Flux-Residual          L2-NORM 
          0                 1           2             4    7     1       0.1207288527E+00       4    7    1         0.6344804194E+01      0.1317347901E+02
          0                 2           2             4    7     1       0.1867311255E-01       4    7    1         0.1029755461E+01      0.1402410428E+01
          0                 3           2             4    7     1      -0.1816124778E-02       4    7    1        -0.1025012359E+00      0.1426869854E+00
          0                 4           1             5    8     1      -0.3487538242E-03       5    8    1        -0.1974589514E-01      0.2118234067E-01
          0                 5           1             5    8     1      -0.9323363978E-04       5    8    1        -0.5290997665E-02      0.5299072031E-02

    ------------------------------------------------
       NWT REQUIRED            5 OUTER ITERATIONS 
       AND A TOTAL OF          8 INNER ITERATIONS.
    ------------------------------------------------

 NO OUTPUT CONTROL FOR STRESS PERIOD   11   TIME STEP    4
 
 SOLVING FOR HEAD 
                                                   Max.-Head-Change                         Max.-Flux-Residual
  Residual-Control   Outer-Iter.   Inner-Iter.     Column Row Layer    Maximum-Head-Change  Column Row Layer    Maximum-Flux-Residual          L2-NORM 
          0                 1           2             4    7     1       0.1181174660E+00       4    7    1         0.6206021025E+01      0.1293130943E+02
          0                 2           2             5    8     1       0.1862994401E-01       5    8    1         0.1044532001E+01      0.1612824764E+01
          0                 3           2             5    8     1       0.4597833158E-02       5    8    1         0.2526635179E+00      0.2670134085E+00
          0                 4           1             5    8     1       0.1134746576E-02       5    8    1         0.6267800824E-01      0.6276758622E-01
          0                 5           1             5    8     1       0.2800556378E-03       5    8    1         0.1545607558E-01      0.1545681735E-01
          0                 6           1             5    8     1       0.6911779915E-04       5    8    1         0.3814475142E-02      0.3814698236E-02

    ------------------------------------------------
       NWT REQUIRED            6 OUTER ITERATIONS 
       AND A TOTAL OF          9 INNER ITERATIONS.
    ------------------------------------------------

 NO OUTPUT CONTROL FOR STRESS PERIOD   11   TIME STEP    5
 
 SOLVING FOR HEAD 
                                                   Max.-Head-Change                         Max.-Flux-Residual
  Residual-Control   Outer-Iter.   Inner-Iter.     Column Row Layer    Maximum-Head-Change  Column Row Layer    Maximum-Flux-Residual          L2-NORM 
          0                 1           2             4    7     1       0.1168078769E+00       4    7    1         0.6137893131E+01      0.1270083753E+02
          0                 2           2             4    8     1       0.1952368629E-01       4    8    1         0.1066173799E+01      0.1459181163E+01
          0                 3           2             4    8     1       0.4933630875E-02       4    8    1         0.2673707413E+00      0.2818968818E+00
          0                 4           2             4    8     1       0.1246725813E-02       4    8    1         0.6767929801E-01      0.6934234374E-01
          0                 5           2             4    8     1       0.3150449334E-03       4    8    1         0.1709865182E-01      0.1755250842E-01
          0                 6           1             4    8     1       0.7961066336E-04       4    8    1         0.4320703214E-02      0.4448084212E-02

    ------------------------------------------------
       NWT REQUIRED            6 OUTER ITERATIONS 
       AND A TOTAL OF         11 INNER ITERATIONS.
    ------------------------------------------------

 NO OUTPUT CONTROL FOR STRESS PERIOD   11   TIME STEP    6
 
 SOLVING FOR HEAD 
                                                   Max.-Head-Change                         Max.-Flux-Residual
  Residual-Control   Outer-Iter.   Inner-Iter.     Column Row Layer    Maximum-Head-Change  Column Row Layer    Maximum-Flux-Residual          L2-NORM 
          0                 1           2             4    7     1       0.1159489494E+00       4    7    1         0.6097051772E+01      0.1197228294E+02
          0                 2           2             5    7     1       0.2334675389E-01       5    7    1         0.1309323425E+01      0.1636401987E+01
          0                 3           2             5    7     1       0.4279933562E-02       5    7    1         0.2351550943E+00      0.2451831310E+00
          0                 4           2             5    7     1      -0.4161057589E-03       5    7    1        -0.2359733944E-01      0.2373865115E-01
          0                 5           1             5    7     1       0.2831488187E-04       5    7    1         0.1654349890E-02      0.1654749374E-02

    ------------------------------------------------
       NWT REQUIRED            5 OUTER ITERATIONS 
       AND A TOTAL OF          9 INNER ITERATIONS.
    ------------------------------------------------

 NO OUTPUT CONTROL FOR STRESS PERIOD   11   TIME STEP    7
 
 SOLVING FOR HEAD 
                                                   Max.-Head-Change                         Max.-Flux-Residual
  Residual-Control   Outer-Iter.   Inner-Iter.     Column Row Layer    Maximum-Head-Change  Column Row Layer    Maximum-Flux-Residual          L2-NORM 
          0                 1           2             4    7     1       0.1151583133E+00       4    7    1         0.6060709541E+01      0.1173717812E+02
          0                 2           2             4    7     1      -0.1119253912E-01       4    7    1        -0.6057576805E+00      0.1094677417E+01
          0                 3           2             4    7     1       0.7615141320E-03       4    7    1         0.4237099666E-01      0.7710571345E-01
          0                 4           1             5    6     1      -0.3742444682E-04       5    6    1        -0.2075829074E-02      0.3756872017E-02

    ------------------------------------------------
       NWT REQUIRED            4 OUTER ITERATIONS 
       AND A TOTAL OF          7 INNER ITERATIONS.
    ------------------------------------------------

 NO OUTPUT CONTROL FOR STRESS PERIOD   11   TIME STEP    8
 
 SOLVING FOR HEAD 
                                                   Max.-Head-Change                         Max.-Flux-Residual
  Residual-Control   Outer-Iter.   Inner-Iter.     Column Row Layer    Maximum-Head-Change  Column Row Layer    Maximum-Flux-Residual          L2-NORM 
          0                 1           2             4    7     1       0.1136674939E+00       4    7    1         0.5983559949E+01      0.1153191602E+02
          0                 2           2             4    7     1       0.2028909209E-01       4    7    1         0.1110728170E+01      0.1764096771E+01
          0                 3           2             4    7     1       0.5152240271E-02       4    7    1         0.2777149542E+00      0.4063480067E+00
          0                 4           2             4    7     1       0.1302197355E-02       4    7    1         0.7052858685E-01      0.1024961093E+00
          0                 5           2             4    7     1       0.3303889215E-03       4    7    1         0.1787528727E-01      0.2603262508E-01
          0                 6           1             4    7     1       0.8388003248E-04       4    7    1         0.4536545182E-02      0.6624087434E-02

    ------------------------------------------------
       NWT REQUIRED            6 OUTER ITERATIONS 
       AND A TOTAL OF         11 INNER ITERATIONS.
    ------------------------------------------------

 NO OUTPUT CONTROL FOR STRESS PERIOD   11   TIME STEP    9
 
 SOLVING FOR HEAD 
                                                   Max.-Head-Change                         Max.-Flux-Residual
  Residual-Control   Outer-Iter.   Inner-Iter.     Column Row Layer    Maximum-Head-Change  Column Row Layer    Maximum-Flux-Residual          L2-NORM 
          0                 1           2             4    7     1       0.1105899692E+00       4    7    1         0.5820855776E+01      0.1129826355E+02
          0                 2           2             4    6     1       0.1240958813E-01       4    6    1         0.6889160727E+00      0.1136139657E+01
          0                 3           2             4    6     1      -0.1206498254E-02       4    6    1        -0.6851092125E-01      0.9338928654E-01
          0                 4           1             4    6     1       0.8209906795E-04       4    6    1         0.4768874040E-02      0.5440825472E-02

    ------------------------------------------------
       NWT REQUIRED            4 OUTER ITERATIONS 
       AND A TOTAL OF          7 INNER ITERATIONS.
    ------------------------------------------------

 NO OUTPUT CONTROL FOR STRESS PERIOD   11   TIME STEP   10
 
 SOLVING FOR HEAD 
                                                   Max.-Head-Change                         Max.-Flux-Residual
  Residual-Control   Outer-Iter.   Inner-Iter.     Column Row Layer    Maximum-Head-Change  Column Row Layer    Maximum-Flux-Residual          L2-NORM 
          0                 1           2             4    7     1       0.1092750364E+00       4    7    1         0.5753939041E+01      0.1109940424E+02
          0                 2           2             4    7     1      -0.1062395219E-01       4    7    1        -0.5750976363E+00      0.1109371292E+01
          0                 3           2             4    7     1       0.7229051749E-03       4    7    1         0.4022641477E-01      0.7760017176E-01
          0                 4           1             4    7     1      -0.2872904674E-04       4    7    1        -0.1643202088E-02      0.3170054799E-02

    ------------------------------------------------
       NWT REQUIRED            4 OUTER ITERATIONS 
       AND A TOTAL OF          7 INNER ITERATIONS.
    ------------------------------------------------

 NO OUTPUT CONTROL FOR STRESS PERIOD   11   TIME STEP   11
 
 SOLVING FOR HEAD 
                                                   Max.-Head-Change                         Max.-Flux-Residual
  Residual-Control   Outer-Iter.   Inner-Iter.     Column Row Layer    Maximum-Head-Change  Column Row Layer    Maximum-Flux-Residual          L2-NORM 
          0                 1           2             4    7     1       0.1078055858E+00       4    7    1         0.5677715965E+01      0.1091921838E+02
          0                 2           2             4    7     1      -0.1048109132E-01       4    7    1        -0.5674794504E+00      0.1091341298E+01
          0                 3           2             4    7     1       0.7131843284E-03       4    7    1         0.3969354951E-01      0.7633909899E-01
          0                 4           1             4    7     1      -0.2834273769E-04       4    7    1        -0.1621435597E-02      0.3118537434E-02

    ------------------------------------------------
       NWT REQUIRED            4 OUTER ITERATIONS 
       AND A TOTAL OF          7 INNER ITERATIONS.
    ------------------------------------------------

 NO OUTPUT CONTROL FOR STRESS PERIOD   11   TIME STEP   12
 
 SOLVING FOR HEAD 
                                                   Max.-Head-Change                         Max.-Flux-Residual
  Residual-Control   Outer-Iter.   Inner-Iter.     Column Row Layer    Maximum-Head-Change  Column Row Layer    Maximum-Flux-Residual          L2-NORM 
          0                 1           2             4    7     1       0.1063368620E+00       4    7    1         0.5601368038E+01      0.1074511551E+02
          0                 2           2             4    7     1      -0.1012455259E-01       4    7    1        -0.5598487347E+00      0.1071508317E+01
          0                 3           2             4    8     1       0.1911704374E-02       4    8    1         0.1031423425E+00      0.1240902755E+00
          0                 4           2             4    8     1       0.4820252753E-03       4    8    1         0.2623386635E-01      0.2637788355E-01
          0                 5           2             4    8     1       0.1215397146E-03       4    8    1         0.6605878600E-02      0.6606299329E-02
          0                 6           1             4    8     1       0.3064550037E-04       4    8    1         0.1665645283E-02      0.1665733643E-02

    ------------------------------------------------
       NWT REQUIRED            6 OUTER ITERATIONS 
       AND A TOTAL OF         11 INNER ITERATIONS.
    ------------------------------------------------

 NO OUTPUT CONTROL FOR STRESS PERIOD   11   TIME STEP   13
 
 SOLVING FOR HEAD 
                                                   Max.-Head-Change                         Max.-Flux-Residual
  Residual-Control   Outer-Iter.   Inner-Iter.     Column Row Layer    Maximum-Head-Change  Column Row Layer    Maximum-Flux-Residual          L2-NORM 
          0                 1           2             4    7     1       0.1051169003E+00       4    7    1         0.5539064689E+01      0.1056887758E+02
          0                 2           2             4    8     1       0.1709968801E-01       4    8    1         0.9402990967E+00      0.1493862679E+01
          0                 3           2             5    7     1       0.3341923802E-02       5    7    1         0.1834343611E+00      0.2150260098E+00
          0                 4           2             5    7     1       0.8234296053E-03       5    7    1         0.4555061033E-01      0.4607564342E-01
          0                 5           2             5    7     1       0.2028878178E-03       5    7    1         0.1120934084E-01      0.1121328989E-01
          0                 6           1             5    7     1       0.4999028499E-04       5    7    1         0.2761949158E-02      0.2762134900E-02

    ------------------------------------------------
       NWT REQUIRED            6 OUTER ITERATIONS 
       AND A TOTAL OF         11 INNER ITERATIONS.
    ------------------------------------------------

 NO OUTPUT CONTROL FOR STRESS PERIOD   11   TIME STEP   14
 
 SOLVING FOR HEAD 
                                                   Max.-Head-Change                         Max.-Flux-Residual
  Residual-Control   Outer-Iter.   Inner-Iter.     Column Row Layer    Maximum-Head-Change  Column Row Layer    Maximum-Flux-Residual          L2-NORM 
          0                 1           2             4    7     1       0.1043463213E+00       4    7    1         0.5502650136E+01      0.1038563552E+02
          0                 2           2             4    7     1       0.2123280687E-01       4    7    1         0.1163317725E+01      0.1470656021E+01
          0                 3           2             4    7     1       0.5330258679E-02       4    7    1         0.2905076769E+00      0.2990772017E+00
          0                 4           1             4    7     1       0.1338105731E-02       4    7    1         0.7295337042E-01      0.7305366678E-01
          0                 5           1             4    7     1       0.3359175264E-03       4    7    1         0.1831776012E-01      0.1831844384E-01
          0                 6           1             4    7     1       0.8432860764E-04       4    7    1         0.4598042420E-02      0.4598203472E-02

    ------------------------------------------------
       NWT REQUIRED            6 OUTER ITERATIONS 
       AND A TOTAL OF          9 INNER ITERATIONS.
    ------------------------------------------------

 NO OUTPUT CONTROL FOR STRESS PERIOD   11   TIME STEP   15
 
 SOLVING FOR HEAD 
                                                   Max.-Head-Change                         Max.-Flux-Residual
  Residual-Control   Outer-Iter.   Inner-Iter.     Column Row Layer    Maximum-Head-Change  Column Row Layer    Maximum-Flux-Residual          L2-NORM 
          0                 1           2             4    7     1       0.1004769347E+00       4    7    1         0.5327866968E+01      0.9527691342E+01
          0                 2           2             5    7     1      -0.7354815869E-02       5    7    1        -0.4025051692E+00      0.8350500117E+00
          0                 3           2             4    6     1       0.1627537360E-02       4    6    1         0.8793715179E-01      0.1025092101E+00
          0                 4           2             4    6     1       0.4084223192E-03       4    6    1         0.2231082749E-01      0.2240679264E-01
          0                 5           1             4    6     1       0.1024913310E-03       4    6    1         0.5589364169E-02      0.5589758601E-02
          0                 6           1             4    6     1       0.2571964328E-04       4    6    1         0.1402657398E-02      0.1402738951E-02

    ------------------------------------------------
       NWT REQUIRED            6 OUTER ITERATIONS 
       AND A TOTAL OF         10 INNER ITERATIONS.
    ------------------------------------------------

 NO OUTPUT CONTROL FOR STRESS PERIOD   11   TIME STEP   16
 
 SOLVING FOR HEAD 
                                                   Max.-Head-Change                         Max.-Flux-Residual
  Residual-Control   Outer-Iter.   Inner-Iter.     Column Row Layer    Maximum-Head-Change  Column Row Layer    Maximum-Flux-Residual          L2-NORM 
          0                 1           2             4    7     1       0.9789978333E-01       4    7    1         0.5226868632E+01      0.8627465889E+01
          0                 2           2             4    6     1       0.1766734003E-01       4    6    1         0.9734939159E+00      0.1174795131E+01
          0                 3           2             4    6     1      -0.1724709654E-02       4    6    1        -0.9702815808E-01      0.1090000804E+00
          0                 4           2             4    6     1       0.1155308483E-03       4    6    1         0.6770988374E-02      0.8901375704E-02
          0                 5           1             5    6     1      -0.2523822327E-04       5    6    1        -0.1427558519E-02      0.1454693135E-02

    ------------------------------------------------
       NWT REQUIRED            5 OUTER ITERATIONS 
       AND A TOTAL OF          9 INNER ITERATIONS.
    ------------------------------------------------

 NO OUTPUT CONTROL FOR STRESS PERIOD   11   TIME STEP   17
 
 SOLVING FOR HEAD 
                                                   Max.-Head-Change                         Max.-Flux-Residual
  Residual-Control   Outer-Iter.   Inner-Iter.     Column Row Layer    Maximum-Head-Change  Column Row Layer    Maximum-Flux-Residual          L2-NORM 
          0                 1           2             4    7     1       0.9567628840E-01       4    7    1         0.5105848985E+01      0.8450274396E+01
          0                 2           2             5    6     1       0.1573023213E-01       5    6    1         0.8791573767E+00      0.1170597680E+01
          0                 3           2             5    6     1       0.3883109217E-02       5    6    1         0.2135336246E+00      0.2203612959E+00
          0                 4           2             5    6     1       0.9585767388E-03       5    6    1         0.5292836328E-01      0.5296892987E-01
          0                 5           2             5    6     1       0.2366323127E-03       5    6    1         0.1305707943E-01      0.1305766232E-01
          0                 6           1             5    6     1       0.5841458868E-04       5    6    1         0.3223320729E-02      0.3223454673E-02

    ------------------------------------------------
       NWT REQUIRED            6 OUTER ITERATIONS 
       AND A TOTAL OF         11 INNER ITERATIONS.
    ------------------------------------------------

 NO OUTPUT CONTROL FOR STRESS PERIOD   11   TIME STEP   18
 
 SOLVING FOR HEAD 
                                                   Max.-Head-Change                         Max.-Flux-Residual
  Residual-Control   Outer-Iter.   Inner-Iter.     Column Row Layer    Maximum-Head-Change  Column Row Layer    Maximum-Flux-Residual          L2-NORM 
          0                 1           2             4    7     1       0.9322468263E-01       4    7    1         0.4971877596E+01      0.7751477312E+01
          0                 2           2             4    7     1      -0.9063659777E-02       4    7    1        -0.4969419598E+00      0.7747834362E+00
          0                 3           2             4    7     1       0.6167401050E-03       4    7    1         0.3475991949E-01      0.5419826521E-01
          0                 4           1             4    7     1      -0.2451031337E-04       4    7    1        -0.1419925026E-02      0.2214245285E-02

    ------------------------------------------------
       NWT REQUIRED            4 OUTER ITERATIONS 
       AND A TOTAL OF          7 INNER ITERATIONS.
    ------------------------------------------------

 NO OUTPUT CONTROL FOR STRESS PERIOD   11   TIME STEP   19
 
 SOLVING FOR HEAD 
                                                   Max.-Head-Change                         Max.-Flux-Residual
  Residual-Control   Outer-Iter.   Inner-Iter.     Column Row Layer    Maximum-Head-Change  Column Row Layer    Maximum-Flux-Residual          L2-NORM 
          0                 1           2             4    7     1       0.9086103986E-01       4    7    1         0.4843775635E+01      0.7529552241E+01
          0                 2           2             4    7     1      -0.8833846982E-02       4    7    1        -0.4841373821E+00      0.7526031434E+00
          0                 3           2             4    7     1       0.6011023496E-03       4    7    1         0.3386426453E-01      0.5264688887E-01
          0                 4           1             4    7     1      -0.2388883225E-04       4    7    1        -0.1383337228E-02      0.2150852199E-02

    ------------------------------------------------
       NWT REQUIRED            4 OUTER ITERATIONS 
       AND A TOTAL OF          7 INNER ITERATIONS.
    ------------------------------------------------

 NO OUTPUT CONTROL FOR STRESS PERIOD   11   TIME STEP   20
 
 SOLVING FOR HEAD 
                                                   Max.-Head-Change                         Max.-Flux-Residual
  Residual-Control   Outer-Iter.   Inner-Iter.     Column Row Layer    Maximum-Head-Change  Column Row Layer    Maximum-Flux-Residual          L2-NORM 
          0                 1           2             4    7     1       0.8859410349E-01       4    7    1         0.4720976510E+01      0.7388798648E+01
          0                 2           2             4    7     1      -0.8613437124E-02       4    7    1        -0.4718628876E+00      0.7385347805E+00
          0                 3           2             4    7     1       0.5861044006E-03       4    7    1         0.3300568791E-01      0.5166284890E-01
          0                 4           1             4    7     1      -0.2329277717E-04       4    7    1        -0.1348264120E-02      0.2110666643E-02

    ------------------------------------------------
       NWT REQUIRED            4 OUTER ITERATIONS 
       AND A TOTAL OF          7 INNER ITERATIONS.
    ------------------------------------------------

 NO OUTPUT CONTROL FOR STRESS PERIOD   11   TIME STEP   21
 
 SOLVING FOR HEAD 
                                                   Max.-Head-Change                         Max.-Flux-Residual
  Residual-Control   Outer-Iter.   Inner-Iter.     Column Row Layer    Maximum-Head-Change  Column Row Layer    Maximum-Flux-Residual          L2-NORM 
          0                 1           2             4    6     1       0.7303592179E-01       4    6    1         0.3925459315E+01      0.6023322061E+01
          0                 2           2             4    6     1      -0.7100787381E-02       4    6    1        -0.3923476351E+00      0.6020646748E+00
          0                 3           2             4    6     1       0.4831802887E-03       4    6    1         0.2744400551E-01      0.4211803593E-01
          0                 4           1             4    6     1      -0.1920267667E-04       4    6    1        -0.1121084115E-02      0.1720833624E-02

    ------------------------------------------------
       NWT REQUIRED            4 OUTER ITERATIONS 
       AND A TOTAL OF          7 INNER ITERATIONS.
    ------------------------------------------------

 NO OUTPUT CONTROL FOR STRESS PERIOD   11   TIME STEP   22
 
 SOLVING FOR HEAD 
                                                   Max.-Head-Change                         Max.-Flux-Residual
  Residual-Control   Outer-Iter.   Inner-Iter.     Column Row Layer    Maximum-Head-Change  Column Row Layer    Maximum-Flux-Residual          L2-NORM 
          0                 1           2             4    6     1       0.7066038366E-01       4    6    1         0.3794849367E+01      0.5914169539E+01
          0                 2           2             4    6     1      -0.6869823180E-02       4    6    1        -0.3792927625E+00      0.5911549941E+00
          0                 3           2             4    6     1       0.4674639468E-03       4    6    1         0.2653082876E-01      0.4135494662E-01
          0                 4           1             4    6     1      -0.1857806178E-04       4    6    1        -0.1083779928E-02      0.1689684107E-02

    ------------------------------------------------
       NWT REQUIRED            4 OUTER ITERATIONS 
       AND A TOTAL OF          7 INNER ITERATIONS.
    ------------------------------------------------

 NO OUTPUT CONTROL FOR STRESS PERIOD   11   TIME STEP   23
 
 SOLVING FOR HEAD 
                                                   Max.-Head-Change                         Max.-Flux-Residual
  Residual-Control   Outer-Iter.   Inner-Iter.     Column Row Layer    Maximum-Head-Change  Column Row Layer    Maximum-Flux-Residual          L2-NORM 
          0                 1           2             4    6     1       0.6841365900E-01       4    6    1         0.3671416580E+01      0.5810754904E+01
          0                 2           2             4    7     1      -0.4056166943E-02       4    7    1        -0.2197616607E+00      0.4792713172E+00
          0                 3           2             4    6     1      -0.8245479931E-03       4    6    1        -0.4666686412E-01      0.5630203649E-01
          0                 4           2             4    6     1      -0.2237466213E-03       4    6    1        -0.1252973959E-01      0.1259753551E-01
          0                 5           1             4    6     1      -0.6071371216E-04       4    6    1        -0.3404613892E-02      0.3404657421E-02

    ------------------------------------------------
       NWT REQUIRED            5 OUTER ITERATIONS 
       AND A TOTAL OF          9 INNER ITERATIONS.
    ------------------------------------------------

 NO OUTPUT CONTROL FOR STRESS PERIOD   11   TIME STEP   24
 
 SOLVING FOR HEAD 
                                                   Max.-Head-Change                         Max.-Flux-Residual
  Residual-Control   Outer-Iter.   Inner-Iter.     Column Row Layer    Maximum-Head-Change  Column Row Layer    Maximum-Flux-Residual          L2-NORM 
          0                 1           2             4    6     1       0.6618051817E-01       4    6    1         0.3548781327E+01      0.5710100439E+01
          0                 2           2             4    6     1       0.1660664577E-01       4    6    1         0.9120974716E+00      0.1015813377E+01
          0                 3           2             4    6     1       0.4167094151E-02       4    6    1         0.2268792428E+00      0.2290770645E+00
          0                 4           2             4    6     1       0.1045648897E-02       4    6    1         0.5705266999E-01      0.5706416823E-01
          0                 5           2             4    6     1       0.2623846593E-03       4    6    1         0.1431124841E-01      0.1431162208E-01
          0                 6           1             4    6     1       0.6584018684E-04       4    6    1         0.3591325459E-02      0.3591369037E-02

    ------------------------------------------------
       NWT REQUIRED            6 OUTER ITERATIONS 
       AND A TOTAL OF         11 INNER ITERATIONS.
    ------------------------------------------------

 NO OUTPUT CONTROL FOR STRESS PERIOD   11   TIME STEP   25
 
 SOLVING FOR HEAD 
                                                   Max.-Head-Change                         Max.-Flux-Residual
  Residual-Control   Outer-Iter.   Inner-Iter.     Column Row Layer    Maximum-Head-Change  Column Row Layer    Maximum-Flux-Residual          L2-NORM 
          0                 1           2             4    7     1       0.4195335340E-01       4    7    1         0.2213840232E+01      0.4723245766E+01
          0                 2           2             4    7     1      -0.4078754283E-02       4    7    1        -0.2212672101E+00      0.4721329788E+00
          0                 3           2             4    7     1       0.2775391747E-03       4    7    1         0.1547705494E-01      0.3303061232E-01
          0                 4           1             4    7     1      -0.1102974472E-04       4    7    1        -0.6322211946E-03      0.1349688227E-02

    ------------------------------------------------
       NWT REQUIRED            4 OUTER ITERATIONS 
       AND A TOTAL OF          7 INNER ITERATIONS.
    ------------------------------------------------

 NO OUTPUT CONTROL FOR STRESS PERIOD   11   TIME STEP   26
 
 SOLVING FOR HEAD 
                                                   Max.-Head-Change                         Max.-Flux-Residual
  Residual-Control   Outer-Iter.   Inner-Iter.     Column Row Layer    Maximum-Head-Change  Column Row Layer    Maximum-Flux-Residual          L2-NORM 
          0                 1           2             4    7     1       0.4116405841E-01       4    7    1         0.2179828070E+01      0.4504747021E+01
          0                 2           2             4    7     1      -0.4002025834E-02       4    7    1        -0.2178682433E+00      0.4502966279E+00
          0                 3           2             4    7     1       0.2723188557E-03       4    7    1         0.1523934596E-01      0.3150336323E-01
          0                 4           1             4    7     1      -0.1082232819E-04       4    7    1        -0.6225137770E-03      0.1287302732E-02

    ------------------------------------------------
       NWT REQUIRED            4 OUTER ITERATIONS 
       AND A TOTAL OF          7 INNER ITERATIONS.
    ------------------------------------------------

 NO OUTPUT CONTROL FOR STRESS PERIOD   11   TIME STEP   27
 
 SOLVING FOR HEAD 
                                                   Max.-Head-Change                         Max.-Flux-Residual
  Residual-Control   Outer-Iter.   Inner-Iter.     Column Row Layer    Maximum-Head-Change  Column Row Layer    Maximum-Flux-Residual          L2-NORM 
          0                 1           2             4    7     1       0.4040637985E-01       4    7    1         0.2138815864E+01      0.4444447659E+01
          0                 2           2             4    7     1      -0.3928361540E-02       4    7    1        -0.2137690619E+00      0.4442691357E+00
          0                 3           2             4    7     1       0.2673062875E-03       4    7    1         0.1495261431E-01      0.3108165725E-01
          0                 4           1             4    7     1      -0.1062311715E-04       4    7    1        -0.6108007285E-03      0.1270072671E-02

    ------------------------------------------------
       NWT REQUIRED            4 OUTER ITERATIONS 
       AND A TOTAL OF          7 INNER ITERATIONS.
    ------------------------------------------------

 NO OUTPUT CONTROL FOR STRESS PERIOD   11   TIME STEP   28
 
 SOLVING FOR HEAD 
                                                   Max.-Head-Change                         Max.-Flux-Residual
  Residual-Control   Outer-Iter.   Inner-Iter.     Column Row Layer    Maximum-Head-Change  Column Row Layer    Maximum-Flux-Residual          L2-NORM 
          0                 1           2             4    7     1       0.3967834776E-01       4    7    1         0.2099450696E+01      0.4385870589E+01
          0                 2           2             4    7     1      -0.3857579661E-02       4    7    1        -0.2098345072E+00      0.4384133203E+00
          0                 3           2             4    7     1       0.2624898599E-03       4    7    1         0.1467739828E-01      0.3067200387E-01
          0                 4           1             4    7     1      -0.1043170105E-04       4    7    1        -0.5995580977E-03      0.1253338779E-02

    ------------------------------------------------
       NWT REQUIRED            4 OUTER ITERATIONS 
       AND A TOTAL OF          7 INNER ITERATIONS.
    ------------------------------------------------

 NO OUTPUT CONTROL FOR STRESS PERIOD   11   TIME STEP   29
 
 SOLVING FOR HEAD 
                                                   Max.-Head-Change                         Max.-Flux-Residual
  Residual-Control   Outer-Iter.   Inner-Iter.     Column Row Layer    Maximum-Head-Change  Column Row Layer    Maximum-Flux-Residual          L2-NORM 
          0                 1           2             4    7     1       0.3897800352E-01       4    7    1         0.2061622644E+01      0.4328894036E+01
          0                 2           2             4    7     1      -0.3789489766E-02       4    7    1        -0.2060535922E+00      0.4327184968E+00
          0                 3           2             4    7     1       0.2578566134E-03       4    7    1         0.1441292924E-01      0.3027359827E-01
          0                 4           1             4    7     1      -0.1024756493E-04       4    7    1        -0.5887544849E-03      0.1237067065E-02

    ------------------------------------------------
       NWT REQUIRED            4 OUTER ITERATIONS 
       AND A TOTAL OF          7 INNER ITERATIONS.
    ------------------------------------------------

 NO OUTPUT CONTROL FOR STRESS PERIOD   11   TIME STEP   30



 STREAM LISTING     PERIOD     11   STEP       30

 LAYER ROW COL. STREAM  RCH.  FLOW INTO     FLOW TO   FLOW OUT OF   OVRLND.     DIRECT     STREAM       STREAM     STREAM     STREAM   STREAMBED  STREAMBED
                SEG.NO.  NO.  STRM. RCH.    AQUIFER    STRM. RCH.    RUNOFF     PRECIP       ET          HEAD       DEPTH      WIDTH   CONDCTNC.   GRADIENT

   1    1    1     1     1    3.5000E+01  2.8629E-01   3.4713E+01  0.000E+00  0.000E+00  0.000E+00  1.09434E+03  1.292E+00  1.482E+01  6.670E-02  1.431E+00
   1    2    2     1     2    3.4713E+01  4.4324E-01   3.4270E+01  0.000E+00  0.000E+00  0.000E+00  1.08935E+03  1.289E+00  1.476E+01  1.033E-01  1.430E+00
   1    3    3     1     3    3.4270E+01  3.7790E-01   3.3892E+01  0.000E+00  0.000E+00  0.000E+00  1.08370E+03  1.286E+00  1.470E+01  8.817E-02  1.429E+00
   1    3    4     1     4    3.3892E+01  3.4789E-01   3.3544E+01  0.000E+00  0.000E+00  0.000E+00  1.07869E+03  1.283E+00  1.464E+01  8.123E-02  1.428E+00
   1    4    5     2     1    3.1544E+01  3.4194E-01   3.1202E+01  0.000E+00  0.000E+00  0.000E+00  1.07332E+03  1.384E+00  1.200E+01  7.800E-02  1.461E+00
   1    5    6     2     2    3.1202E+01  2.6255E-01   3.0940E+01  0.000E+00  0.000E+00  0.000E+00  1.06789E+03  1.376E+00  1.200E+01  6.000E-02  1.459E+00
   1    6    6     2     3    3.0940E+01  2.6213E-01   3.0678E+01  0.000E+00  0.000E+00  0.000E+00  1.06316E+03  1.369E+00  1.200E+01  6.000E-02  1.456E+00
   1    7    6     2     4    3.0678E+01  2.6171E-01   3.0416E+01  0.000E+00  0.000E+00  0.000E+00  1.05844E+03  1.362E+00  1.200E+01  6.000E-02  1.454E+00
   1    8    6     2     5    3.0416E+01  2.6129E-01   3.0155E+01  0.000E+00  0.000E+00  0.000E+00  1.05371E+03  1.355E+00  1.200E+01  6.000E-02  1.452E+00
   1    3    5     3     1    2.0000E+00  2.8252E-01   1.7175E+00  0.000E+00  0.000E+00  0.000E+00  1.07555E+03  1.909E+00  9.636E+00  7.227E-02  1.955E+00
   1    3    6     3     2    1.7175E+00  2.4905E-01   1.4684E+00  0.000E+00  0.000E+00  0.000E+00  1.07264E+03  1.727E+00  8.909E+00  6.682E-02  1.864E+00
   1    3    7     3     3    1.4684E+00  1.9718E-01   1.2712E+00  0.000E+00  0.000E+00  0.000E+00  1.06987E+03  1.555E+00  8.218E+00  5.547E-02  1.777E+00
   1    4    8     3     4    1.2712E+00  2.2567E-01   1.0456E+00  0.000E+00  0.000E+00  0.000E+00  1.06682E+03  1.364E+00  7.455E+00  6.709E-02  1.682E+00
   1    5    8     3     5    1.0456E+00  1.5790E-01   8.8768E-01  0.000E+00  0.000E+00  0.000E+00  1.06362E+03  1.164E+00  6.655E+00  4.991E-02  1.582E+00
   1    6    8     3     6    8.8768E-01  5.5980E-02   8.3170E-01  0.000E+00  0.000E+00  0.000E+00  1.06158E+03  1.036E+00  6.145E+00  1.844E-02  1.518E+00
   1    5   10     4     1    1.0000E+01  9.0919E-02   9.9091E+00  0.000E+00  0.000E+00  0.000E+00  1.07836E+03  6.368E-01  1.000E+01  2.500E-02  1.212E+00
   1    5    9     4     2    9.9091E+00  1.8158E-01   9.7275E+00  0.000E+00  0.000E+00  0.000E+00  1.07154E+03  6.315E-01  1.000E+01  5.000E-02  1.211E+00
   1    6    8     4     3    9.7275E+00  1.2689E-01   9.6006E+00  0.000E+00  0.000E+00  0.000E+00  1.06381E+03  6.256E-01  1.000E+01  3.500E-02  1.209E+00
   1    6    8     5     1    1.0432E+01  2.2686E-01   1.0205E+01  0.000E+00  0.000E+00  0.000E+00  1.05868E+03  6.790E-01  1.542E+01  6.166E-02  1.226E+00
   1    7    7     5     2    1.0205E+01  2.7894E-01   9.9265E+00  0.000E+00  0.000E+00  0.000E+00  1.05417E+03  6.732E-01  1.519E+01  7.594E-02  1.224E+00
   1    8    7     5     3    9.9265E+00  1.9221E-01   9.7343E+00  0.000E+00  0.000E+00  0.000E+00  1.04992E+03  6.676E-01  1.497E+01  5.241E-02  1.223E+00
   1    8    6     5     4    9.7343E+00  1.3577E-01   9.5985E+00  0.000E+00  0.000E+00  0.000E+00  1.04691E+03  6.637E-01  1.482E+01  3.706E-02  1.221E+00
   1    9    6     6     1    3.9753E+01  2.7657E-01   3.9477E+01  0.000E+00  0.000E+00  0.000E+00  1.04434E+03  1.609E+00  1.200E+01  6.000E-02  1.536E+00
   1   10    7     6     2    3.9477E+01  2.7616E-01   3.9201E+01  0.000E+00  0.000E+00  0.000E+00  1.03978E+03  1.603E+00  1.200E+01  6.000E-02  1.534E+00
   1   11    7     6     3    3.9201E+01  2.7576E-01   3.8925E+01  0.000E+00  0.000E+00  0.000E+00  1.03523E+03  1.596E+00  1.200E+01  6.000E-02  1.532E+00
   1   12    7     6     4    3.8925E+01  2.7535E-01   3.8649E+01  0.000E+00  0.000E+00  0.000E+00  1.03068E+03  1.589E+00  1.200E+01  6.000E-02  1.530E+00
   1   13    7     6     5    3.8649E+01  6.4941E-03   3.8643E+01  0.000E+00  0.000E+00  0.000E+00  1.02749E+03  1.586E+00  1.200E+01  2.400E-02  9.020E-02
   1   14    9     7     1    1.5000E+02  1.3303E+00   1.4867E+02  0.000E+00  0.000E+00  0.000E+00  1.03987E+03  2.288E+00  5.529E+01  5.593E-01  7.928E-01
   1   13    8     7     2    1.4867E+02  1.7944E+00   1.4688E+02  0.000E+00  0.000E+00  0.000E+00  1.03478E+03  2.279E+00  5.526E+01  6.148E-01  9.729E-01
   1   13    7     7     3    1.4688E+02  1.3772E+00   1.4550E+02  0.000E+00  0.000E+00  0.000E+00  1.02969E+03  2.271E+00  5.522E+01  5.585E-01  8.220E-01
   1   13    6     8     1    1.8414E+02  8.8518E-01   1.8326E+02  0.000E+00  0.000E+00  0.000E+00  1.02491E+03  3.039E+00  4.407E+01  4.491E-01  6.570E-01
   1   13    5     8     2    1.8326E+02  1.2741E-01   1.8313E+02  0.000E+00  0.000E+00  0.000E+00  1.01866E+03  3.036E+00  4.402E+01  4.486E-01  9.467E-02
   1   13    4     8     3    1.8313E+02 -2.6104E+00   1.8574E+02  0.000E+00  0.000E+00  0.000E+00  1.01242E+03  3.044E+00  4.414E+01  4.498E+00 -1.935E-01
   1   13    3     8     4    1.8574E+02 -3.7472E+00   1.8949E+02  0.000E+00  0.000E+00  0.000E+00  1.00619E+03  3.063E+00  4.442E+01  4.526E+00 -2.759E-01
   1   13    2     8     5    1.8949E+02 -2.6145E+00   1.9210E+02  0.000E+00  0.000E+00  0.000E+00  9.99958E+02  3.083E+00  4.470E+01  4.555E+00 -1.913E-01
   1   13    1     8     6    1.9210E+02 -2.0206E+00   1.9412E+02  0.000E+00  0.000E+00  0.000E+00  9.94972E+02  3.097E+00  4.490E+01  2.745E+00 -2.453E-01





UNSATURATED ZONE PACKAGE VOLUMETRIC BUDGET FOR  TIME STEP    30 STRESS PERIOD   11
  ------------------------------------------------------------------------------



     CUMULATIVE VOLUMES      L**3       RATES FOR THIS TIME STEP      L**3/T
     ------------------                 ------------------------

           IN:                                      IN:
           ---                                      ---
        INFILTRATION =   457404967.3510          INFILTRATION =           0.8475

          OUT:                                     OUT:
          ----                                     ----
              UZF ET =   419404257.3749                UZF ET =           0.8475
        UZF RECHARGE =    37928014.4558          UZF RECHARGE =           0.0004

            IN - OUT =       72695.5202              IN - OUT =      -4.3021E-04

          STORAGE:                                 STORAGE:
          --------                                 --------
      STORAGE CHANGE =       72697.4462        STORAGE CHANGE =      -4.3021E-04

 PERCENT DISCREPANCY IS DIFFERENCE BETWEEN IN-OUT MINUS CHANGE IN STORAGE
 DIVIDED BY THE AVERAGE OF IN AND OUT TIMES 100

 PERCENT DISCREPANCY =           0.00     PERCENT DISCREPANCY =           0.00






1
  VOLUMETRIC BUDGET FOR AGRICULTURAL FIELDS AT  END OF TIME STEP   30, STRESS PERIOD  11
  ------------------------------------------------------------------------------

     CUMULATIVE VOLUMES      L**3       RATES FOR THIS TIME STEP      L**3/T
     ------------------                 ------------------------

           IN:                                      IN:
           ---                                      ---
               AG WELLS  =   435042048.0000                 AG WELLS  =           0.0000
      DIVERSION SEGMENTS =           0.0000        DIVERSION SEGMENTS =           0.0000
           GW IRRIGATION =           0.0000             GW IRRIGATION =           0.0000
           SW IRRIGATION =           0.0000             SW IRRIGATION =           0.0000
        SYSTEM LOSSES GW =           0.0000          SYSTEM LOSSES GW =           0.0000
        SYSTEM LOSSES SW =           0.0000          SYSTEM LOSSES SW =           0.0000

                TOTAL IN =   435042048.0000                  TOTAL IN =           0.0000

          OUT:                                     OUT:
          ----                                     ----
               AG WELLS  =           0.0000                 AG WELLS  =           0.0000
      DIVERSION SEGMENTS =           0.0000        DIVERSION SEGMENTS =           0.0000
           GW IRRIGATION =   435042048.0000             GW IRRIGATION =           0.0000
           SW IRRIGATION =           0.0000             SW IRRIGATION =           0.0000
        SYSTEM LOSSES GW =           0.0000          SYSTEM LOSSES GW =           0.0000
        SYSTEM LOSSES SW =           0.0000          SYSTEM LOSSES SW =           0.0000

               TOTAL OUT =   435042048.0000                 TOTAL OUT =           0.0000

                IN - OUT =           0.0000                  IN - OUT =           0.0000

     PERCENT DISCREPANCY =           0.00         PERCENT DISCREPANCY =           0.00



1
  VOLUMETRIC BUDGET FOR ENTIRE MODEL AT END OF TIME STEP   30, STRESS PERIOD  11
  ------------------------------------------------------------------------------

     CUMULATIVE VOLUMES      L**3       RATES FOR THIS TIME STEP      L**3/T
     ------------------                 ------------------------

           IN:                                      IN:
           ---                                      ---
             STORAGE     =   510442272.0000               STORAGE     =          11.8133
       CONSTANT HEAD     =           0.0000         CONSTANT HEAD     =           0.0000
     HEAD DEP BOUNDS     =     7531935.5000       HEAD DEP BOUNDS     =           0.2854
      STREAM LEAKAGE     =   334145888.0000        STREAM LEAKAGE     =          11.8712
        UZF RECHARGE     =    37928016.0000          UZF RECHARGE     =       4.3021E-04
               GW ET     =           0.0000                 GW ET     =           0.0000
     SURFACE LEAKAGE     =           0.0000       SURFACE LEAKAGE     =           0.0000
           AG WELLS      =           0.0000             AG WELLS      =           0.0000

                TOTAL IN =   890048064.0000                  TOTAL IN =          23.9704

          OUT:                                     OUT:
          ----                                     ----
             STORAGE     =   163228672.0000               STORAGE     =          12.6809
       CONSTANT HEAD     =           0.0000         CONSTANT HEAD     =           0.0000
     HEAD DEP BOUNDS     =     7792456.5000       HEAD DEP BOUNDS     =           0.2929
      STREAM LEAKAGE     =   270226176.0000        STREAM LEAKAGE     =          10.9926
        UZF RECHARGE     =           0.0000          UZF RECHARGE     =           0.0000
               GW ET     =    13758036.0000                 GW ET     =       3.8942E-03
     SURFACE LEAKAGE     =           0.0000       SURFACE LEAKAGE     =           0.0000
           AG WELLS      =   435042048.0000             AG WELLS      =           0.0000

               TOTAL OUT =   890047360.0000                 TOTAL OUT =          23.9704

                IN - OUT =         704.0000                  IN - OUT =       7.6294E-06

     PERCENT DISCREPANCY =           0.00         PERCENT DISCREPANCY =           0.00






         TIME SUMMARY AT END OF TIME STEP   30 IN STRESS PERIOD   11
                    SECONDS     MINUTES      HOURS       DAYS        YEARS
                    -----------------------------------------------------------
   TIME STEP LENGTH  87667.      1461.1      24.352      1.0147     2.77799E-03
 STRESS PERIOD TIME 2.63000E+06  43833.      730.56      30.440     8.33397E-02
         TOTAL TIME 2.63864E+07 4.39773E+05  7329.5      305.40     0.83613    
1
1
                            STRESS PERIOD NO.   12, LENGTH =   2630000.    
                            -----------------------------------------------

                              NUMBER OF TIME STEPS =    30

                               MULTIPLIER FOR DELT =     1.000

                            INITIAL TIME STEP SIZE =   87666.66    

 REUSING NON-PARAMETER GHB CELLS FROM LAST STRESS PERIOD

      2 GHB CELLS

 REUSING STREAM SEGMENT DATA FROM LAST STRESS PERIOD



            AREAL INFILTRATION RATE
 READING ON UNIT   19 WITH FORMAT: (FREE)              

            1           2           3           4           5           6           7           8           9          10
 ........................................................................................................................
   1   1.0000E-10  2.0000E-10   0.000       0.000       0.000       0.000       0.000       0.000       0.000       0.000    
   2   2.0000E-10  1.0000E-10  2.0000E-10   0.000       0.000      8.0000E-10  8.0000E-10  5.0000E-10   0.000       0.000    
   3    0.000      5.0000E-10  1.0000E-10  1.0000E-10  8.0000E-10  8.0000E-10  5.0000E-10  5.0000E-10   0.000       0.000    
   4   8.0000E-10  5.0000E-10  1.0000E-10  1.0000E-10  1.0000E-10  1.0000E-10  1.0000E-10  1.0000E-10  2.0000E-10   0.000    
   5   8.0000E-10  5.0000E-10  1.0000E-10  1.0000E-10  1.0000E-10  1.0000E-10  1.0000E-10  1.0000E-10  1.0000E-10  1.0000E-10
   6   8.0000E-10  5.0000E-10  5.0000E-10  2.0000E-10  2.0000E-10  1.0000E-10  1.0000E-10  1.0000E-10  1.0000E-10  5.0000E-10
   7   8.0000E-10  5.0000E-10  5.0000E-10  2.0000E-10  2.0000E-10  1.0000E-10  1.0000E-10  2.0000E-10  2.0000E-10   0.000    
   8    0.000      5.0000E-10  5.0000E-10  2.0000E-10  2.0000E-10  1.0000E-10  1.0000E-10  2.0000E-10  5.0000E-10   0.000    
   9    0.000      5.0000E-10  5.0000E-10  2.0000E-10  2.0000E-10  1.0000E-10  1.0000E-10  2.0000E-10  5.0000E-10   0.000    
  10    0.000      5.0000E-10  5.0000E-10  2.0000E-10  2.0000E-10  1.0000E-10  1.0000E-10  2.0000E-10  5.0000E-10  8.0000E-10
  11    0.000      1.0000E-10  1.0000E-10  1.0000E-10  1.0000E-10  1.0000E-10  1.0000E-10  2.0000E-10  5.0000E-10   0.000    
  12   1.0000E-10  1.0000E-10  1.0000E-10  1.0000E-10  1.0000E-10  1.0000E-10  1.0000E-10  1.0000E-10  2.0000E-10   0.000    
  13   1.0000E-10  1.0000E-10  2.0000E-10  2.0000E-10  2.0000E-10  2.0000E-10  2.0000E-10  1.0000E-10  1.0000E-10   0.000    
  14    0.000      2.0000E-10  5.0000E-10  5.0000E-10  5.0000E-10  5.0000E-10  5.0000E-10  2.0000E-10  1.0000E-10   0.000    
  15    0.000       0.000      8.0000E-10  8.0000E-10  8.0000E-10  8.0000E-10   0.000       0.000       0.000       0.000    

                  ET RATE =  5.000000E-10

 USING ET EXTINCTION DEPTH FROM PREVIOUS STRESS PERIOD. CURRENT PERIOD IS:      12

 USING EXTINCTION WATER CONTENT FROM PREVIOUS STRESS PERIOD. CURRENT PERIOD IS:      12

 USING AIR ENTRY PRESSURE FROM PREVIOUS STRESS PERIOD. CURRENT PERIOD IS:      12

 USING ROOT PRESSURE HEAD FROM PREVIOUS STRESS PERIOD. CURRENT PERIOD IS:      12

 USING ROOT ACTIVITY FROM PREVIOUS STRESS PERIOD. CURRENT PERIOD IS:      12

 PROCESSING AG STRESS PERIOD DATA

 READING AG STRESS PERIOD DATA

 READING IRRIGATION WELL

 END PROCESSING AG STRESS PERIOD DATA OPTIONS
 
 SOLVING FOR HEAD 
                                                   Max.-Head-Change                         Max.-Flux-Residual
  Residual-Control   Outer-Iter.   Inner-Iter.     Column Row Layer    Maximum-Head-Change  Column Row Layer    Maximum-Flux-Residual          L2-NORM 
          0                 1           2             4    7     1       0.3830348442E-01       4    7    1         0.2025230160E+01      0.4292572519E+01
          0                 2           2             4    7     1      -0.3723910753E-02       4    7    1        -0.2024161666E+00      0.4290164593E+00
          0                 3           2             4    7     1       0.2533942273E-03       4    7    1         0.1415849731E-01      0.3000813222E-01
          0                 4           1             4    7     1      -0.1007022007E-04       4    7    1        -0.5783609320E-03      0.1225810612E-02

    ------------------------------------------------
       NWT REQUIRED            4 OUTER ITERATIONS 
       AND A TOTAL OF          7 INNER ITERATIONS.
    ------------------------------------------------

 NO OUTPUT CONTROL FOR STRESS PERIOD   12   TIME STEP    1
 
 SOLVING FOR HEAD 
                                                   Max.-Head-Change                         Max.-Flux-Residual
  Residual-Control   Outer-Iter.   Inner-Iter.     Column Row Layer    Maximum-Head-Change  Column Row Layer    Maximum-Flux-Residual          L2-NORM 
          0                 1           2             4    7     1       0.3765339659E-01       4    7    1         0.1990191324E+01      0.4242439013E+01
          0                 2           2             4    7     1      -0.3660707097E-02       4    7    1        -0.1989140423E+00      0.4239896358E+00
          0                 3           2             4    7     1       0.2490934763E-03       4    7    1         0.1391352960E-01      0.2965523117E-01
          0                 4           1             4    7     1      -0.9899299446E-05       4    7    1        -0.5683540021E-03      0.1211298973E-02

    ------------------------------------------------
       NWT REQUIRED            4 OUTER ITERATIONS 
       AND A TOTAL OF          7 INNER ITERATIONS.
    ------------------------------------------------

 NO OUTPUT CONTROL FOR STRESS PERIOD   12   TIME STEP    2
 
 SOLVING FOR HEAD 
                                                   Max.-Head-Change                         Max.-Flux-Residual
  Residual-Control   Outer-Iter.   Inner-Iter.     Column Row Layer    Maximum-Head-Change  Column Row Layer    Maximum-Flux-Residual          L2-NORM 
          0                 1           2             4    7     1       0.3702606184E-01       4    7    1         0.1956411876E+01      0.4187771864E+01
          0                 2           2             4    7     1      -0.3599715629E-02       4    7    1        -0.1955377974E+00      0.4185381643E+00
          0                 3           2             4    7     1       0.2449432586E-03       4    7    1         0.1367736711E-01      0.2927475434E-01
          0                 4           1             4    7     1      -0.9734360508E-05       4    7    1        -0.5587067651E-03      0.1195684042E-02

    ------------------------------------------------
       NWT REQUIRED            4 OUTER ITERATIONS 
       AND A TOTAL OF          7 INNER ITERATIONS.
    ------------------------------------------------

 NO OUTPUT CONTROL FOR STRESS PERIOD   12   TIME STEP    3
 
 SOLVING FOR HEAD 
                                                   Max.-Head-Change                         Max.-Flux-Residual
  Residual-Control   Outer-Iter.   Inner-Iter.     Column Row Layer    Maximum-Head-Change  Column Row Layer    Maximum-Flux-Residual          L2-NORM 
          0                 1           2             4    7     1       0.3642006435E-01       4    7    1         0.1923812133E+01      0.4134611599E+01
          0                 2           2             4    7     1      -0.3540798695E-02       4    7    1        -0.1922794673E+00      0.4132332058E+00
          0                 3           2             4    7     1       0.2409342068E-03       4    7    1         0.1344945268E-01      0.2890440275E-01
          0                 4           1             4    7     1      -0.9575033004E-05       4    7    1        -0.5493964900E-03      0.1180689796E-02

    ------------------------------------------------
       NWT REQUIRED            4 OUTER ITERATIONS 
       AND A TOTAL OF          7 INNER ITERATIONS.
    ------------------------------------------------

 NO OUTPUT CONTROL FOR STRESS PERIOD   12   TIME STEP    4
 
 SOLVING FOR HEAD 
                                                   Max.-Head-Change                         Max.-Flux-Residual
  Residual-Control   Outer-Iter.   Inner-Iter.     Column Row Layer    Maximum-Head-Change  Column Row Layer    Maximum-Flux-Residual          L2-NORM 
          0                 1           2             4    7     1       0.3583436425E-01       4    7    1         0.1892333356E+01      0.4082871285E+01
          0                 2           2             4    7     1      -0.3483855190E-02       4    7    1        -0.1891331806E+00      0.4080696134E+00
          0                 3           2             4    7     1       0.2370594405E-03       4    7    1         0.1322937561E-01      0.2854397659E-01
          0                 4           1             4    7     1      -0.9421041780E-05       4    7    1        -0.5404063709E-03      0.1166014957E-02

    ------------------------------------------------
       NWT REQUIRED            4 OUTER ITERATIONS 
       AND A TOTAL OF          7 INNER ITERATIONS.
    ------------------------------------------------

 NO OUTPUT CONTROL FOR STRESS PERIOD   12   TIME STEP    5
 
 SOLVING FOR HEAD 
                                                   Max.-Head-Change                         Max.-Flux-Residual
  Residual-Control   Outer-Iter.   Inner-Iter.     Column Row Layer    Maximum-Head-Change  Column Row Layer    Maximum-Flux-Residual          L2-NORM 
          0                 1           2             4    7     1       0.3526760436E-01       4    7    1         0.1861899629E+01      0.4032442792E+01
          0                 2           2             4    7     1      -0.3428753123E-02       4    7    1        -0.1860913493E+00      0.4030148272E+00
          0                 3           2             4    7     1       0.2333099443E-03       4    7    1         0.1301660516E-01      0.2819136925E-01
          0                 4           1             4    7     1      -0.9271995746E-05       4    7    1        -0.5317147345E-03      0.1150889937E-02

    ------------------------------------------------
       NWT REQUIRED            4 OUTER ITERATIONS 
       AND A TOTAL OF          7 INNER ITERATIONS.
    ------------------------------------------------

 NO OUTPUT CONTROL FOR STRESS PERIOD   12   TIME STEP    6
 
 SOLVING FOR HEAD 
                                                   Max.-Head-Change                         Max.-Flux-Residual
  Residual-Control   Outer-Iter.   Inner-Iter.     Column Row Layer    Maximum-Head-Change  Column Row Layer    Maximum-Flux-Residual          L2-NORM 
          0                 1           2             4    7     1       0.3471867215E-01       4    7    1         0.1832447920E+01      0.3983256112E+01
          0                 2           2             4    7     1      -0.3375384435E-02       4    7    1        -0.1831476730E+00      0.3981245706E+00
          0                 3           2             4    7     1       0.2296784679E-03       4    7    1         0.1281070057E-01      0.2784932922E-01
          0                 4           1             4    7     1      -0.9127707476E-05       4    7    1        -0.5233035643E-03      0.1137782152E-02

    ------------------------------------------------
       NWT REQUIRED            4 OUTER ITERATIONS 
       AND A TOTAL OF          7 INNER ITERATIONS.
    ------------------------------------------------

 NO OUTPUT CONTROL FOR STRESS PERIOD   12   TIME STEP    7
 
 SOLVING FOR HEAD 
                                                   Max.-Head-Change                         Max.-Flux-Residual
  Residual-Control   Outer-Iter.   Inner-Iter.     Column Row Layer    Maximum-Head-Change  Column Row Layer    Maximum-Flux-Residual          L2-NORM 
          0                 1           2             4    7     1       0.3418667062E-01       4    7    1         0.1803927875E+01      0.3935420435E+01
          0                 2           2             4    7     1      -0.3323661799E-02       4    7    1        -0.1802971187E+00      0.3933482956E+00
          0                 3           2             4    7     1       0.2261589655E-03       4    7    1         0.1261130978E-01      0.2751572993E-01
          0                 4           1             4    7     1      -0.8987835961E-05       4    7    1        -0.5151585117E-03      0.1124195304E-02

    ------------------------------------------------
       NWT REQUIRED            4 OUTER ITERATIONS 
       AND A TOTAL OF          7 INNER ITERATIONS.
    ------------------------------------------------

 NO OUTPUT CONTROL FOR STRESS PERIOD   12   TIME STEP    8
 
 SOLVING FOR HEAD 
                                                   Max.-Head-Change                         Max.-Flux-Residual
  Residual-Control   Outer-Iter.   Inner-Iter.     Column Row Layer    Maximum-Head-Change  Column Row Layer    Maximum-Flux-Residual          L2-NORM 
          0                 1           2             4    7     1       0.3367063648E-01       4    7    1         0.1776285657E+01      0.3888668273E+01
          0                 2           2             4    7     1      -0.3273491598E-02       4    7    1        -0.1775343049E+00      0.3886795583E+00
          0                 3           2             4    7     1       0.2227451018E-03       4    7    1         0.1241805640E-01      0.2718951664E-01
          0                 4           1             4    7     1      -0.8852162459E-05       4    7    1        -0.5072641607E-03      0.1110921925E-02

    ------------------------------------------------
       NWT REQUIRED            4 OUTER ITERATIONS 
       AND A TOTAL OF          7 INNER ITERATIONS.
    ------------------------------------------------

 NO OUTPUT CONTROL FOR STRESS PERIOD   12   TIME STEP    9
 
 SOLVING FOR HEAD 
                                                   Max.-Head-Change                         Max.-Flux-Residual
  Residual-Control   Outer-Iter.   Inner-Iter.     Column Row Layer    Maximum-Head-Change  Column Row Layer    Maximum-Flux-Residual          L2-NORM 
          0                 1           2             4    7     1       0.3316981402E-01       4    7    1         0.1749478656E+01      0.3842952113E+01
          0                 2           2             4    7     1      -0.3224800356E-02       4    7    1        -0.1748549729E+00      0.3841137990E+00
          0                 3           2             4    7     1       0.2194318762E-03       4    7    1         0.1223064248E-01      0.2687045760E-01
          0                 4           1             4    7     1      -0.8720489410E-05       4    7    1        -0.4996083794E-03      0.1097844630E-02

    ------------------------------------------------
       NWT REQUIRED            4 OUTER ITERATIONS 
       AND A TOTAL OF          7 INNER ITERATIONS.
    ------------------------------------------------

 NO OUTPUT CONTROL FOR STRESS PERIOD   12   TIME STEP   10
 
 SOLVING FOR HEAD 
                                                   Max.-Head-Change                         Max.-Flux-Residual
  Residual-Control   Outer-Iter.   Inner-Iter.     Column Row Layer    Maximum-Head-Change  Column Row Layer    Maximum-Flux-Residual          L2-NORM 
          0                 1           2             4    7     1       0.3268323022E-01       4    7    1         0.1723453017E+01      0.3798205999E+01
          0                 2           2             4    7     1      -0.3177493534E-02       4    7    1        -0.1722537395E+00      0.3796446644E+00
          0                 3           2             4    7     1       0.2162128545E-03       4    7    1         0.1204869149E-01      0.2655815312E-01
          0                 4           1             4    7     1      -0.8592559736E-05       4    7    1        -0.4921757588E-03      0.1085032472E-02

    ------------------------------------------------
       NWT REQUIRED            4 OUTER ITERATIONS 
       AND A TOTAL OF          7 INNER ITERATIONS.
    ------------------------------------------------

 NO OUTPUT CONTROL FOR STRESS PERIOD   12   TIME STEP   11
 
 SOLVING FOR HEAD 
                                                   Max.-Head-Change                         Max.-Flux-Residual
  Residual-Control   Outer-Iter.   Inner-Iter.     Column Row Layer    Maximum-Head-Change  Column Row Layer    Maximum-Flux-Residual          L2-NORM 
          0                 1           2             4    7     1       0.3221025548E-01       4    7    1         0.1698172960E+01      0.3754406852E+01
          0                 2           2             4    7     1      -0.3131509842E-02       4    7    1        -0.1697270283E+00      0.3752537664E+00
          0                 3           2             4    7     1       0.2130838683E-03       4    7    1         0.1187195325E-01      0.2625000158E-01
          0                 4           1             4    7     1      -0.8468208112E-05       4    7    1        -0.4849560644E-03      0.1072812076E-02

    ------------------------------------------------
       NWT REQUIRED            4 OUTER ITERATIONS 
       AND A TOTAL OF          7 INNER ITERATIONS.
    ------------------------------------------------

 NO OUTPUT CONTROL FOR STRESS PERIOD   12   TIME STEP   12
 
 SOLVING FOR HEAD 
                                                   Max.-Head-Change                         Max.-Flux-Residual
  Residual-Control   Outer-Iter.   Inner-Iter.     Column Row Layer    Maximum-Head-Change  Column Row Layer    Maximum-Flux-Residual          L2-NORM 
          0                 1           2             4    7     1       0.3175016979E-01       4    7    1         0.1673598510E+01      0.3711485149E+01
          0                 2           2             4    7     1      -0.3086779229E-02       4    7    1        -0.1672708437E+00      0.3709817331E+00
          0                 3           2             4    7     1       0.2100401500E-03       4    7    1         0.1170014828E-01      0.2595261542E-01
          0                 4           1             4    7     1      -0.8347245500E-05       4    7    1        -0.4779378999E-03      0.1060415738E-02

    ------------------------------------------------
       NWT REQUIRED            4 OUTER ITERATIONS 
       AND A TOTAL OF          7 INNER ITERATIONS.
    ------------------------------------------------

 NO OUTPUT CONTROL FOR STRESS PERIOD   12   TIME STEP   13
 
 SOLVING FOR HEAD 
                                                   Max.-Head-Change                         Max.-Flux-Residual
  Residual-Control   Outer-Iter.   Inner-Iter.     Column Row Layer    Maximum-Head-Change  Column Row Layer    Maximum-Flux-Residual          L2-NORM 
          0                 1           2             4    7     1       0.3130217216E-01       4    7    1         0.1649684998E+01      0.3669417900E+01
          0                 2           2             4    7     1      -0.3043223874E-02       4    7    1        -0.1648807210E+00      0.3667793357E+00
          0                 3           2             4    7     1       0.2070764041E-03       4    7    1         0.1153296428E-01      0.2565882406E-01
          0                 4           1             4    7     1      -0.8229460984E-05       4    7    1        -0.4711085160E-03      0.1048380191E-02

    ------------------------------------------------
       NWT REQUIRED            4 OUTER ITERATIONS 
       AND A TOTAL OF          7 INNER ITERATIONS.
    ------------------------------------------------

 NO OUTPUT CONTROL FOR STRESS PERIOD   12   TIME STEP   14
 
 SOLVING FOR HEAD 
                                                   Max.-Head-Change                         Max.-Flux-Residual
  Residual-Control   Outer-Iter.   Inner-Iter.     Column Row Layer    Maximum-Head-Change  Column Row Layer    Maximum-Flux-Residual          L2-NORM 
          0                 1           2             4    7     1       0.3086605158E-01       4    7    1         0.1626420244E+01      0.3628172168E+01
          0                 2           2             4    7     1      -0.3000823262E-02       4    7    1        -0.1625554426E+00      0.3626586174E+00
          0                 3           2             4    7     1       0.2041912340E-03       4    7    1         0.1137031604E-01      0.2537074037E-01
          0                 4           1             4    7     1      -0.8114799766E-05       4    7    1        -0.4644644189E-03      0.1036631297E-02

    ------------------------------------------------
       NWT REQUIRED            4 OUTER ITERATIONS 
       AND A TOTAL OF          7 INNER ITERATIONS.
    ------------------------------------------------

 NO OUTPUT CONTROL FOR STRESS PERIOD   12   TIME STEP   15
 
 SOLVING FOR HEAD 
                                                   Max.-Head-Change                         Max.-Flux-Residual
  Residual-Control   Outer-Iter.   Inner-Iter.     Column Row Layer    Maximum-Head-Change  Column Row Layer    Maximum-Flux-Residual          L2-NORM 
          0                 1           2             4    7     1       0.3044081083E-01       4    7    1         0.1603749279E+01      0.3587704795E+01
          0                 2           2             4    7     1      -0.2959480437E-02       4    7    1        -0.1602895141E+00      0.3586153248E+00
          0                 3           2             4    7     1       0.2013780428E-03       4    7    1         0.1121181928E-01      0.2508802249E-01
          0                 4           1             4    7     1      -0.8002998893E-05       4    7    1        -0.4579899125E-03      0.1025118818E-02

    ------------------------------------------------
       NWT REQUIRED            4 OUTER ITERATIONS 
       AND A TOTAL OF          7 INNER ITERATIONS.
    ------------------------------------------------

 NO OUTPUT CONTROL FOR STRESS PERIOD   12   TIME STEP   16
 
 SOLVING FOR HEAD 
                                                   Max.-Head-Change                         Max.-Flux-Residual
  Residual-Control   Outer-Iter.   Inner-Iter.     Column Row Layer    Maximum-Head-Change  Column Row Layer    Maximum-Flux-Residual          L2-NORM 
          0                 1           2             4    7     1       0.3002632276E-01       4    7    1         0.1581664430E+01      0.3547993998E+01
          0                 2           2             4    7     1      -0.2919183037E-02       4    7    1        -0.1580821686E+00      0.3546475408E+00
          0                 3           2             4    7     1       0.1986359890E-03       4    7    1         0.1105742034E-01      0.2481057330E-01
          0                 4           1             4    7     1      -0.7894025208E-05       4    7    1        -0.4516828039E-03      0.1013754655E-02

    ------------------------------------------------
       NWT REQUIRED            4 OUTER ITERATIONS 
       AND A TOTAL OF          7 INNER ITERATIONS.
    ------------------------------------------------

 NO OUTPUT CONTROL FOR STRESS PERIOD   12   TIME STEP   17
 
 SOLVING FOR HEAD 
                                                   Max.-Head-Change                         Max.-Flux-Residual
  Residual-Control   Outer-Iter.   Inner-Iter.     Column Row Layer    Maximum-Head-Change  Column Row Layer    Maximum-Flux-Residual          L2-NORM 
          0                 1           2             4    7     1       0.2962180545E-01       4    7    1         0.1560122410E+01      0.3509010333E+01
          0                 2           2             4    7     1      -0.2879855036E-02       4    7    1        -0.1559290795E+00      0.3507522135E+00
          0                 3           2             4    7     1       0.1959598988E-03       4    7    1         0.1090681654E-01      0.2453818824E-01
          0                 4           1             4    7     1      -0.7787673094E-05       4    7    1        -0.4455307162E-03      0.1002629769E-02

    ------------------------------------------------
       NWT REQUIRED            4 OUTER ITERATIONS 
       AND A TOTAL OF          7 INNER ITERATIONS.
    ------------------------------------------------

 NO OUTPUT CONTROL FOR STRESS PERIOD   12   TIME STEP   18
 
 SOLVING FOR HEAD 
                                                   Max.-Head-Change                         Max.-Flux-Residual
  Residual-Control   Outer-Iter.   Inner-Iter.     Column Row Layer    Maximum-Head-Change  Column Row Layer    Maximum-Flux-Residual          L2-NORM 
          0                 1           2             4    7     1       0.2922692747E-01       4    7    1         0.1539104695E+01      0.3470728543E+01
          0                 2           2             4    7     1      -0.2841464213E-02       4    7    1        -0.1538283952E+00      0.3469269685E+00
          0                 3           2             4    7     1       0.1933475811E-03       4    7    1         0.1075987843E-01      0.2427082715E-01
          0                 4           1             4    7     1      -0.7683856090E-05       4    7    1        -0.4395284095E-03      0.9917858892E-03

    ------------------------------------------------
       NWT REQUIRED            4 OUTER ITERATIONS 
       AND A TOTAL OF          7 INNER ITERATIONS.
    ------------------------------------------------

 NO OUTPUT CONTROL FOR STRESS PERIOD   12   TIME STEP   19
 
 SOLVING FOR HEAD 
                                                   Max.-Head-Change                         Max.-Flux-Residual
  Residual-Control   Outer-Iter.   Inner-Iter.     Column Row Layer    Maximum-Head-Change  Column Row Layer    Maximum-Flux-Residual          L2-NORM 
          0                 1           2             4    7     1       0.2884137950E-01       4    7    1         0.1518594102E+01      0.3433128262E+01
          0                 2           2             4    7     1      -0.2803980492E-02       4    7    1        -0.1517783982E+00      0.3431696082E+00
          0                 3           2             4    7     1       0.1907969874E-03       4    7    1         0.1061648580E-01      0.2400789382E-01
          0                 4           1             4    7     1      -0.7582491073E-05       4    7    1        -0.4336709076E-03      0.9809216686E-03

    ------------------------------------------------
       NWT REQUIRED            4 OUTER ITERATIONS 
       AND A TOTAL OF          7 INNER ITERATIONS.
    ------------------------------------------------

 NO OUTPUT CONTROL FOR STRESS PERIOD   12   TIME STEP   20
 
 SOLVING FOR HEAD 
                                                   Max.-Head-Change                         Max.-Flux-Residual
  Residual-Control   Outer-Iter.   Inner-Iter.     Column Row Layer    Maximum-Head-Change  Column Row Layer    Maximum-Flux-Residual          L2-NORM 
          0                 1           2             4    7     1       0.2846447541E-01       4    7    1         0.1498552572E+01      0.3396183532E+01
          0                 2           2             4    7     1      -0.2767337165E-02       4    7    1        -0.1497752843E+00      0.3394777324E+00
          0                 3           2             4    7     1       0.1883035798E-03       4    7    1         0.1047637260E-01      0.2374974797E-01
          0                 4           1             4    7     1      -0.7483399596E-05       4    7    1        -0.4279473765E-03      0.9704245796E-03

    ------------------------------------------------
       NWT REQUIRED            4 OUTER ITERATIONS 
       AND A TOTAL OF          7 INNER ITERATIONS.
    ------------------------------------------------

 NO OUTPUT CONTROL FOR STRESS PERIOD   12   TIME STEP   21
 
 SOLVING FOR HEAD 
                                                   Max.-Head-Change                         Max.-Flux-Residual
  Residual-Control   Outer-Iter.   Inner-Iter.     Column Row Layer    Maximum-Head-Change  Column Row Layer    Maximum-Flux-Residual          L2-NORM 
          0                 1           2             4    7     1       0.2809610256E-01       4    7    1         0.1478973893E+01      0.3359872843E+01
          0                 2           2             4    7     1      -0.2731523278E-02       4    7    1        -0.1478184328E+00      0.3358490768E+00
          0                 3           2             4    7     1       0.1858666124E-03       4    7    1         0.1033949538E-01      0.2349599872E-01
          0                 4           1             4    7     1      -0.7386550459E-05       4    7    1        -0.4223560416E-03      0.9600952987E-03

    ------------------------------------------------
       NWT REQUIRED            4 OUTER ITERATIONS 
       AND A TOTAL OF          7 INNER ITERATIONS.
    ------------------------------------------------

 NO OUTPUT CONTROL FOR STRESS PERIOD   12   TIME STEP   22
 
 SOLVING FOR HEAD 
                                                   Max.-Head-Change                         Max.-Flux-Residual
  Residual-Control   Outer-Iter.   Inner-Iter.     Column Row Layer    Maximum-Head-Change  Column Row Layer    Maximum-Flux-Residual          L2-NORM 
          0                 1           2             4    7     1       0.2773589980E-01       4    7    1         0.1459837545E+01      0.3324188126E+01
          0                 2           2             4    7     1      -0.2696503720E-02       4    7    1        -0.1459057923E+00      0.3322828979E+00
          0                 3           2             4    7     1       0.1834836954E-03       4    7    1         0.1020571063E-01      0.2324659666E-01
          0                 4           1             4    7     1      -0.7291850179E-05       4    7    1        -0.4168910295E-03      0.9499063695E-03

    ------------------------------------------------
       NWT REQUIRED            4 OUTER ITERATIONS 
       AND A TOTAL OF          7 INNER ITERATIONS.
    ------------------------------------------------

 NO OUTPUT CONTROL FOR STRESS PERIOD   12   TIME STEP   23
 
 SOLVING FOR HEAD 
                                                   Max.-Head-Change                         Max.-Flux-Residual
  Residual-Control   Outer-Iter.   Inner-Iter.     Column Row Layer    Maximum-Head-Change  Column Row Layer    Maximum-Flux-Residual          L2-NORM 
          0                 1           2             4    7     1       0.2738338177E-01       4    7    1         0.1441117458E+01      0.3289092868E+01
          0                 2           2             4    7     1      -0.2662231300E-02       4    7    1        -0.1440347575E+00      0.3287755747E+00
          0                 3           2             4    7     1       0.1811516183E-03       4    7    1         0.1007483616E-01      0.2300126982E-01
          0                 4           1             4    7     1      -0.7199169583E-05       4    7    1        -0.4115448892E-03      0.9398647373E-03

    ------------------------------------------------
       NWT REQUIRED            4 OUTER ITERATIONS 
       AND A TOTAL OF          7 INNER ITERATIONS.
    ------------------------------------------------

 NO OUTPUT CONTROL FOR STRESS PERIOD   12   TIME STEP   24
 
 SOLVING FOR HEAD 
                                                   Max.-Head-Change                         Max.-Flux-Residual
  Residual-Control   Outer-Iter.   Inner-Iter.     Column Row Layer    Maximum-Head-Change  Column Row Layer    Maximum-Flux-Residual          L2-NORM 
          0                 1           2             4    7     1       0.2703836995E-01       4    7    1         0.1422803153E+01      0.3254586304E+01
          0                 2           2             4    7     1      -0.2628688661E-02       4    7    1        -0.1422042807E+00      0.3253270546E+00
          0                 3           2             4    7     1       0.1788692003E-03       4    7    1         0.9946798649E-02      0.2276008998E-01
          0                 4           1             4    7     1      -0.7108463425E-05       4    7    1        -0.4063146689E-03      0.9300308340E-03

    ------------------------------------------------
       NWT REQUIRED            4 OUTER ITERATIONS 
       AND A TOTAL OF          7 INNER ITERATIONS.
    ------------------------------------------------

 NO OUTPUT CONTROL FOR STRESS PERIOD   12   TIME STEP   25
 
 SOLVING FOR HEAD 
                                                   Max.-Head-Change                         Max.-Flux-Residual
  Residual-Control   Outer-Iter.   Inner-Iter.     Column Row Layer    Maximum-Head-Change  Column Row Layer    Maximum-Flux-Residual          L2-NORM 
          0                 1           2             4    7     1       0.2670056274E-01       4    7    1         0.1404878032E+01      0.3220649660E+01
          0                 2           2             4    7     1      -0.2595846481E-02       4    7    1        -0.1404127028E+00      0.3219354012E+00
          0                 3           2             4    7     1       0.1766344454E-03       4    7    1         0.9821482065E-02      0.2252289036E-01
          0                 4           1             4    7     1      -0.7019650540E-05       4    7    1        -0.4011955659E-03      0.9203598340E-03

    ------------------------------------------------
       NWT REQUIRED            4 OUTER ITERATIONS 
       AND A TOTAL OF          7 INNER ITERATIONS.
    ------------------------------------------------

 NO OUTPUT CONTROL FOR STRESS PERIOD   12   TIME STEP   26
 
 SOLVING FOR HEAD 
                                                   Max.-Head-Change                         Max.-Flux-Residual
  Residual-Control   Outer-Iter.   Inner-Iter.     Column Row Layer    Maximum-Head-Change  Column Row Layer    Maximum-Flux-Residual          L2-NORM 
          0                 1           2             4    7     1       0.2636954272E-01       4    7    1         0.1387319113E+01      0.3187260569E+01
          0                 2           2             4    7     1      -0.2563664175E-02       4    7    1        -0.1386577269E+00      0.3185984290E+00
          0                 3           2             4    7     1       0.1744445922E-03       4    7    1         0.9698725712E-02      0.2228946630E-01
          0                 4           1             4    7     1      -0.6932622824E-05       4    7    1        -0.3961810698E-03      0.9108086452E-03

    ------------------------------------------------
       NWT REQUIRED            4 OUTER ITERATIONS 
       AND A TOTAL OF          7 INNER ITERATIONS.
    ------------------------------------------------

 NO OUTPUT CONTROL FOR STRESS PERIOD   12   TIME STEP   27
 
 SOLVING FOR HEAD 
                                                   Max.-Head-Change                         Max.-Flux-Residual
  Residual-Control   Outer-Iter.   Inner-Iter.     Column Row Layer    Maximum-Head-Change  Column Row Layer    Maximum-Flux-Residual          L2-NORM 
          0                 1           2             4    7     1       0.2604531489E-01       4    7    1         0.1370126785E+01      0.3154402466E+01
          0                 2           2             4    7     1      -0.2532142229E-02       4    7    1        -0.1369393918E+00      0.3153144674E+00
          0                 3           2             4    7     1       0.1722996742E-03       4    7    1         0.9578532349E-02      0.2205975915E-01
          0                 4           1             4    7     1      -0.6847381082E-05       4    7    1        -0.3912712696E-03      0.9013925881E-03

    ------------------------------------------------
       NWT REQUIRED            4 OUTER ITERATIONS 
       AND A TOTAL OF          7 INNER ITERATIONS.
    ------------------------------------------------

 NO OUTPUT CONTROL FOR STRESS PERIOD   12   TIME STEP   28
 
 SOLVING FOR HEAD 
                                                   Max.-Head-Change                         Max.-Flux-Residual
  Residual-Control   Outer-Iter.   Inner-Iter.     Column Row Layer    Maximum-Head-Change  Column Row Layer    Maximum-Flux-Residual          L2-NORM 
          0                 1           2             4    7     1       0.2572749230E-01       4    7    1         0.1353279275E+01      0.3122082256E+01
          0                 2           2             4    7     1      -0.2501243021E-02       4    7    1        -0.1352555211E+00      0.3120842410E+00
          0                 3           2             4    7     1       0.1701971308E-03       4    7    1         0.9460749702E-02      0.2183381512E-01
          0                 4           1             4    7     1      -0.6763823081E-05       4    7    1        -0.3864599578E-03      0.8921908528E-03

    ------------------------------------------------
       NWT REQUIRED            4 OUTER ITERATIONS 
       AND A TOTAL OF          7 INNER ITERATIONS.
    ------------------------------------------------

 NO OUTPUT CONTROL FOR STRESS PERIOD   12   TIME STEP   29
 
 SOLVING FOR HEAD 
                                                   Max.-Head-Change                         Max.-Flux-Residual
  Residual-Control   Outer-Iter.   Inner-Iter.     Column Row Layer    Maximum-Head-Change  Column Row Layer    Maximum-Flux-Residual          L2-NORM 
          0                 1           2             4    7     1       0.2541583157E-01       4    7    1         0.1336763865E+01      0.3091382817E+01
          0                 2           2             4    7     1      -0.2470942890E-02       4    7    1        -0.1336048440E+00      0.3090127665E+00
          0                 3           2             4    7     1       0.1681353520E-03       4    7    1         0.9345288870E-02      0.2161867594E-01
          0                 4           1             4    7     1      -0.6681885041E-05       4    7    1        -0.3817434806E-03      0.8833587797E-03

    ------------------------------------------------
       NWT REQUIRED            4 OUTER ITERATIONS 
       AND A TOTAL OF          7 INNER ITERATIONS.
    ------------------------------------------------

 NO OUTPUT CONTROL FOR STRESS PERIOD   12   TIME STEP   30



 STREAM LISTING     PERIOD     12   STEP       30

 LAYER ROW COL. STREAM  RCH.  FLOW INTO     FLOW TO   FLOW OUT OF   OVRLND.     DIRECT     STREAM       STREAM     STREAM     STREAM   STREAMBED  STREAMBED
                SEG.NO.  NO.  STRM. RCH.    AQUIFER    STRM. RCH.    RUNOFF     PRECIP       ET          HEAD       DEPTH      WIDTH   CONDCTNC.   GRADIENT

   1    1    1     1     1    2.5441E+01  2.4717E-01   2.5194E+01  0.000E+00  0.000E+00  0.000E+00  1.09423E+03  1.185E+00  1.313E+01  5.906E-02  1.395E+00
   1    2    2     1     2    2.5194E+01  3.8224E-01   2.4811E+01  0.000E+00  0.000E+00  0.000E+00  1.08924E+03  1.180E+00  1.306E+01  9.144E-02  1.393E+00
   1    3    3     1     3    2.4811E+01  3.2545E-01   2.4486E+01  0.000E+00  0.000E+00  0.000E+00  1.08359E+03  1.175E+00  1.299E+01  7.795E-02  1.392E+00
   1    3    4     1     4    2.4486E+01  2.9925E-01   2.4187E+01  0.000E+00  0.000E+00  0.000E+00  1.07858E+03  1.170E+00  1.293E+01  7.176E-02  1.390E+00
   1    4    5     2     1    2.2187E+01  3.2130E-01   2.1865E+01  0.000E+00  0.000E+00  0.000E+00  1.07305E+03  1.119E+00  1.200E+01  7.800E-02  1.373E+00
   1    5    6     2     2    2.1865E+01  2.4663E-01   2.1619E+01  0.000E+00  0.000E+00  0.000E+00  1.06762E+03  1.111E+00  1.200E+01  6.000E-02  1.370E+00
   1    6    6     2     3    2.1619E+01  2.4618E-01   2.1373E+01  0.000E+00  0.000E+00  0.000E+00  1.06290E+03  1.103E+00  1.200E+01  6.000E-02  1.368E+00
   1    7    6     2     4    2.1373E+01  2.4572E-01   2.1127E+01  0.000E+00  0.000E+00  0.000E+00  1.05817E+03  1.095E+00  1.200E+01  6.000E-02  1.365E+00
   1    8    6     2     5    2.1127E+01  2.4527E-01   2.0882E+01  0.000E+00  0.000E+00  0.000E+00  1.05345E+03  1.088E+00  1.200E+01  6.000E-02  1.363E+00
   1    3    5     3     1    2.0000E+00  2.8252E-01   1.7175E+00  0.000E+00  0.000E+00  0.000E+00  1.07555E+03  1.909E+00  9.636E+00  7.227E-02  1.955E+00
   1    3    6     3     2    1.7175E+00  2.4905E-01   1.4684E+00  0.000E+00  0.000E+00  0.000E+00  1.07264E+03  1.727E+00  8.909E+00  6.682E-02  1.864E+00
   1    3    7     3     3    1.4684E+00  1.9718E-01   1.2712E+00  0.000E+00  0.000E+00  0.000E+00  1.06987E+03  1.555E+00  8.218E+00  5.547E-02  1.777E+00
   1    4    8     3     4    1.2712E+00  2.2567E-01   1.0456E+00  0.000E+00  0.000E+00  0.000E+00  1.06682E+03  1.364E+00  7.455E+00  6.709E-02  1.682E+00
   1    5    8     3     5    1.0456E+00  1.5790E-01   8.8768E-01  0.000E+00  0.000E+00  0.000E+00  1.06362E+03  1.164E+00  6.655E+00  4.991E-02  1.582E+00
   1    6    8     3     6    8.8768E-01  5.5980E-02   8.3170E-01  0.000E+00  0.000E+00  0.000E+00  1.06158E+03  1.036E+00  6.145E+00  1.844E-02  1.518E+00
   1    5   10     4     1    1.0000E+01  9.0919E-02   9.9091E+00  0.000E+00  0.000E+00  0.000E+00  1.07836E+03  6.368E-01  1.000E+01  2.500E-02  1.212E+00
   1    5    9     4     2    9.9091E+00  1.8158E-01   9.7275E+00  0.000E+00  0.000E+00  0.000E+00  1.07154E+03  6.315E-01  1.000E+01  5.000E-02  1.211E+00
   1    6    8     4     3    9.7275E+00  1.2689E-01   9.6006E+00  0.000E+00  0.000E+00  0.000E+00  1.06381E+03  6.256E-01  1.000E+01  3.500E-02  1.209E+00
   1    6    8     5     1    1.0432E+01  2.2686E-01   1.0205E+01  0.000E+00  0.000E+00  0.000E+00  1.05868E+03  6.790E-01  1.542E+01  6.166E-02  1.226E+00
   1    7    7     5     2    1.0205E+01  2.7894E-01   9.9265E+00  0.000E+00  0.000E+00  0.000E+00  1.05417E+03  6.732E-01  1.519E+01  7.594E-02  1.224E+00
   1    8    7     5     3    9.9265E+00  1.9221E-01   9.7343E+00  0.000E+00  0.000E+00  0.000E+00  1.04992E+03  6.676E-01  1.497E+01  5.241E-02  1.223E+00
   1    8    6     5     4    9.7343E+00  1.3577E-01   9.5985E+00  0.000E+00  0.000E+00  0.000E+00  1.04691E+03  6.637E-01  1.482E+01  3.706E-02  1.221E+00
   1    9    6     6     1    3.0480E+01  2.6230E-01   3.0218E+01  0.000E+00  0.000E+00  0.000E+00  1.04410E+03  1.372E+00  1.200E+01  6.000E-02  1.457E+00
   1   10    7     6     2    3.0218E+01  2.6187E-01   2.9956E+01  0.000E+00  0.000E+00  0.000E+00  1.03955E+03  1.365E+00  1.200E+01  6.000E-02  1.455E+00
   1   11    7     6     3    2.9956E+01  2.6145E-01   2.9695E+01  0.000E+00  0.000E+00  0.000E+00  1.03499E+03  1.357E+00  1.200E+01  6.000E-02  1.452E+00
   1   12    7     6     4    2.9695E+01  2.6102E-01   2.9434E+01  0.000E+00  0.000E+00  0.000E+00  1.03044E+03  1.350E+00  1.200E+01  6.000E-02  1.450E+00
   1   13    7     6     5    2.9434E+01  1.3406E-03   2.9432E+01  0.000E+00  0.000E+00  0.000E+00  1.02726E+03  1.347E+00  1.200E+01  2.400E-02  1.862E-02
   1   14    9     7     1    1.5000E+02  1.3299E+00   1.4867E+02  0.000E+00  0.000E+00  0.000E+00  1.03987E+03  2.288E+00  5.529E+01  5.593E-01  7.926E-01
   1   13    8     7     2    1.4867E+02  1.7967E+00   1.4687E+02  0.000E+00  0.000E+00  0.000E+00  1.03478E+03  2.279E+00  5.526E+01  6.148E-01  9.742E-01
   1   13    7     7     3    1.4687E+02  1.3908E+00   1.4548E+02  0.000E+00  0.000E+00  0.000E+00  1.02969E+03  2.271E+00  5.522E+01  5.585E-01  8.301E-01
   1   13    6     8     1    1.7491E+02  8.6520E-01   1.7405E+02  0.000E+00  0.000E+00  0.000E+00  1.02486E+03  2.981E+00  4.323E+01  4.405E-01  6.547E-01
   1   13    5     8     2    1.7405E+02  1.2316E-01   1.7393E+02  0.000E+00  0.000E+00  0.000E+00  1.01860E+03  2.978E+00  4.318E+01  4.400E-01  9.330E-02
   1   13    4     8     3    1.7393E+02 -2.6107E+00   1.7654E+02  0.000E+00  0.000E+00  0.000E+00  1.01236E+03  2.986E+00  4.330E+01  4.412E+00 -1.972E-01
   1   13    3     8     4    1.7654E+02 -3.7602E+00   1.8030E+02  0.000E+00  0.000E+00  0.000E+00  1.00613E+03  3.006E+00  4.359E+01  4.442E+00 -2.822E-01
   1   13    2     8     5    1.8030E+02 -2.6294E+00   1.8293E+02  0.000E+00  0.000E+00  0.000E+00  9.99901E+02  3.026E+00  4.388E+01  4.472E+00 -1.960E-01
   1   13    1     8     6    1.8293E+02 -2.0230E+00   1.8495E+02  0.000E+00  0.000E+00  0.000E+00  9.94916E+02  3.041E+00  4.409E+01  2.696E+00 -2.501E-01





UNSATURATED ZONE PACKAGE VOLUMETRIC BUDGET FOR  TIME STEP    30 STRESS PERIOD   12
  ------------------------------------------------------------------------------



     CUMULATIVE VOLUMES      L**3       RATES FOR THIS TIME STEP      L**3/T
     ------------------                 ------------------------

           IN:                                      IN:
           ---                                      ---
        INFILTRATION =   459633892.2237          INFILTRATION =           0.8475

          OUT:                                     OUT:
          ----                                     ----
              UZF ET =   421376757.3448                UZF ET =           0.7500
        UZF RECHARGE =    37928968.2772          UZF RECHARGE =           0.0003

            IN - OUT =      328166.6017              IN - OUT =       9.7192E-02

          STORAGE:                                 STORAGE:
          --------                                 --------
      STORAGE CHANGE =      328168.5482        STORAGE CHANGE =       9.7192E-02

 PERCENT DISCREPANCY IS DIFFERENCE BETWEEN IN-OUT MINUS CHANGE IN STORAGE
 DIVIDED BY THE AVERAGE OF IN AND OUT TIMES 100

 PERCENT DISCREPANCY =           0.00     PERCENT DISCREPANCY =           0.00






1
  VOLUMETRIC BUDGET FOR AGRICULTURAL FIELDS AT  END OF TIME STEP   30, STRESS PERIOD  12
  ------------------------------------------------------------------------------

     CUMULATIVE VOLUMES      L**3       RATES FOR THIS TIME STEP      L**3/T
     ------------------                 ------------------------

           IN:                                      IN:
           ---                                      ---
               AG WELLS  =   435042048.0000                 AG WELLS  =           0.0000
      DIVERSION SEGMENTS =           0.0000        DIVERSION SEGMENTS =           0.0000
           GW IRRIGATION =           0.0000             GW IRRIGATION =           0.0000
           SW IRRIGATION =           0.0000             SW IRRIGATION =           0.0000
        SYSTEM LOSSES GW =           0.0000          SYSTEM LOSSES GW =           0.0000
        SYSTEM LOSSES SW =           0.0000          SYSTEM LOSSES SW =           0.0000

                TOTAL IN =   435042048.0000                  TOTAL IN =           0.0000

          OUT:                                     OUT:
          ----                                     ----
               AG WELLS  =           0.0000                 AG WELLS  =           0.0000
      DIVERSION SEGMENTS =           0.0000        DIVERSION SEGMENTS =           0.0000
           GW IRRIGATION =   435042048.0000             GW IRRIGATION =           0.0000
           SW IRRIGATION =           0.0000             SW IRRIGATION =           0.0000
        SYSTEM LOSSES GW =           0.0000          SYSTEM LOSSES GW =           0.0000
        SYSTEM LOSSES SW =           0.0000          SYSTEM LOSSES SW =           0.0000

               TOTAL OUT =   435042048.0000                 TOTAL OUT =           0.0000

                IN - OUT =           0.0000                  IN - OUT =           0.0000

     PERCENT DISCREPANCY =           0.00         PERCENT DISCREPANCY =           0.00



1
  VOLUMETRIC BUDGET FOR ENTIRE MODEL AT END OF TIME STEP   30, STRESS PERIOD  12
  ------------------------------------------------------------------------------

     CUMULATIVE VOLUMES      L**3       RATES FOR THIS TIME STEP      L**3/T
     ------------------                 ------------------------

           IN:                                      IN:
           ---                                      ---
             STORAGE     =   538243264.0000               STORAGE     =           9.0420
       CONSTANT HEAD     =           0.0000         CONSTANT HEAD     =           0.0000
     HEAD DEP BOUNDS     =     8282453.0000       HEAD DEP BOUNDS     =           0.2854
      STREAM LEAKAGE     =   364423200.0000        STREAM LEAKAGE     =          11.5144
        UZF RECHARGE     =    37928972.0000          UZF RECHARGE     =       3.0757E-04
               GW ET     =           0.0000                 GW ET     =           0.0000
     SURFACE LEAKAGE     =           0.0000       SURFACE LEAKAGE     =           0.0000
           AG WELLS      =           0.0000             AG WELLS      =           0.0000

                TOTAL IN =   948877824.0000                  TOTAL IN =          20.8420

          OUT:                                     OUT:
          ----                                     ----
             STORAGE     =   191827504.0000               STORAGE     =           9.5273
       CONSTANT HEAD     =           0.0000         CONSTANT HEAD     =           0.0000
     HEAD DEP BOUNDS     =     8560184.0000       HEAD DEP BOUNDS     =           0.2913
      STREAM LEAKAGE     =   299689344.0000        STREAM LEAKAGE     =          11.0234
        UZF RECHARGE     =           0.0000          UZF RECHARGE     =           0.0000
               GW ET     =    13758094.0000                 GW ET     =           0.0000
     SURFACE LEAKAGE     =           0.0000       SURFACE LEAKAGE     =           0.0000
           AG WELLS      =   435042048.0000             AG WELLS      =           0.0000

               TOTAL OUT =   948877184.0000                 TOTAL OUT =          20.8420

                IN - OUT =         640.0000                  IN - OUT =       7.6294E-06

     PERCENT DISCREPANCY =           0.00         PERCENT DISCREPANCY =           0.00






         TIME SUMMARY AT END OF TIME STEP   30 IN STRESS PERIOD   12
                    SECONDS     MINUTES      HOURS       DAYS        YEARS
                    -----------------------------------------------------------
   TIME STEP LENGTH  87667.      1461.1      24.352      1.0147     2.77799E-03
 STRESS PERIOD TIME 2.63000E+06  43833.      730.56      30.440     8.33397E-02
         TOTAL TIME 2.90163E+07 4.83606E+05  8060.1      335.84     0.91947    
1
1
                            STRESS PERIOD NO.   13, LENGTH =   2630000.    
                            -----------------------------------------------

                              NUMBER OF TIME STEPS =    30

                               MULTIPLIER FOR DELT =     1.000

                            INITIAL TIME STEP SIZE =   87666.66    

 REUSING NON-PARAMETER GHB CELLS FROM LAST STRESS PERIOD

      2 GHB CELLS

 REUSING STREAM SEGMENT DATA FROM LAST STRESS PERIOD



            AREAL INFILTRATION RATE
 READING ON UNIT   19 WITH FORMAT: (FREE)              

            1           2           3           4           5           6           7           8           9          10
 ........................................................................................................................
   1   1.0000E-10  2.0000E-10   0.000       0.000       0.000       0.000       0.000       0.000       0.000       0.000    
   2   2.0000E-10  1.0000E-10  2.0000E-10   0.000       0.000      8.0000E-10  8.0000E-10  5.0000E-10   0.000       0.000    
   3    0.000      5.0000E-10  1.0000E-10  1.0000E-10  8.0000E-10  8.0000E-10  5.0000E-10  5.0000E-10   0.000       0.000    
   4   8.0000E-10  5.0000E-10  1.0000E-10  1.0000E-10  1.0000E-10  1.0000E-10  1.0000E-10  1.0000E-10  2.0000E-10   0.000    
   5   8.0000E-10  5.0000E-10  1.0000E-10  1.0000E-10  1.0000E-10  1.0000E-10  1.0000E-10  1.0000E-10  1.0000E-10  1.0000E-10
   6   8.0000E-10  5.0000E-10  5.0000E-10  2.0000E-10  2.0000E-10  1.0000E-10  1.0000E-10  1.0000E-10  1.0000E-10  5.0000E-10
   7   8.0000E-10  5.0000E-10  5.0000E-10  2.0000E-10  2.0000E-10  1.0000E-10  1.0000E-10  2.0000E-10  2.0000E-10   0.000    
   8    0.000      5.0000E-10  5.0000E-10  2.0000E-10  2.0000E-10  1.0000E-10  1.0000E-10  2.0000E-10  5.0000E-10   0.000    
   9    0.000      5.0000E-10  5.0000E-10  2.0000E-10  2.0000E-10  1.0000E-10  1.0000E-10  2.0000E-10  5.0000E-10   0.000    
  10    0.000      5.0000E-10  5.0000E-10  2.0000E-10  2.0000E-10  1.0000E-10  1.0000E-10  2.0000E-10  5.0000E-10  8.0000E-10
  11    0.000      1.0000E-10  1.0000E-10  1.0000E-10  1.0000E-10  1.0000E-10  1.0000E-10  2.0000E-10  5.0000E-10   0.000    
  12   1.0000E-10  1.0000E-10  1.0000E-10  1.0000E-10  1.0000E-10  1.0000E-10  1.0000E-10  1.0000E-10  2.0000E-10   0.000    
  13   1.0000E-10  1.0000E-10  2.0000E-10  2.0000E-10  2.0000E-10  2.0000E-10  2.0000E-10  1.0000E-10  1.0000E-10   0.000    
  14    0.000      2.0000E-10  5.0000E-10  5.0000E-10  5.0000E-10  5.0000E-10  5.0000E-10  2.0000E-10  1.0000E-10   0.000    
  15    0.000       0.000      8.0000E-10  8.0000E-10  8.0000E-10  8.0000E-10   0.000       0.000       0.000       0.000    

                  ET RATE =  5.000000E-10

 USING ET EXTINCTION DEPTH FROM PREVIOUS STRESS PERIOD. CURRENT PERIOD IS:      13

 USING EXTINCTION WATER CONTENT FROM PREVIOUS STRESS PERIOD. CURRENT PERIOD IS:      13

 USING AIR ENTRY PRESSURE FROM PREVIOUS STRESS PERIOD. CURRENT PERIOD IS:      13

 USING ROOT PRESSURE HEAD FROM PREVIOUS STRESS PERIOD. CURRENT PERIOD IS:      13

 USING ROOT ACTIVITY FROM PREVIOUS STRESS PERIOD. CURRENT PERIOD IS:      13

 PROCESSING AG STRESS PERIOD DATA

 READING AG STRESS PERIOD DATA

 READING IRRIGATION WELL

 END PROCESSING AG STRESS PERIOD DATA OPTIONS
 
 SOLVING FOR HEAD 
                                                   Max.-Head-Change                         Max.-Flux-Residual
  Residual-Control   Outer-Iter.   Inner-Iter.     Column Row Layer    Maximum-Head-Change  Column Row Layer    Maximum-Flux-Residual          L2-NORM 
          0                 1           2             4    7     1       0.2511022658E-01       4    7    1         0.1320575282E+01      0.3066637908E+01
          0                 2           2             4    7     1      -0.2441231519E-02       4    7    1        -0.1319868331E+00      0.3064967985E+00
          0                 3           2             4    7     1       0.1661136360E-03       4    7    1         0.9232113006E-02      0.2144088317E-01
          0                 4           1             4    7     1      -0.6601539561E-05       4    7    1        -0.3771203469E-03      0.8759640283E-03

    ------------------------------------------------
       NWT REQUIRED            4 OUTER ITERATIONS 
       AND A TOTAL OF          7 INNER ITERATIONS.
    ------------------------------------------------

 NO OUTPUT CONTROL FOR STRESS PERIOD   13   TIME STEP    1
 
 SOLVING FOR HEAD 
                                                   Max.-Head-Change                         Max.-Flux-Residual
  Residual-Control   Outer-Iter.   Inner-Iter.     Column Row Layer    Maximum-Head-Change  Column Row Layer    Maximum-Flux-Residual          L2-NORM 
          0                 1           2             4    7     1       0.2481032589E-01       4    7    1         0.1304693333E+01      0.3035340799E+01
          0                 2           2             4    7     1      -0.2412074738E-02       4    7    1        -0.1303994701E+00      0.3033923304E+00
          0                 3           2             4    7     1       0.1641296573E-03       4    7    1         0.9121080913E-02      0.2122383818E-01
          0                 4           1             4    7     1      -0.6522693503E-05       4    7    1        -0.3725847687E-03      0.8672045735E-03

    ------------------------------------------------
       NWT REQUIRED            4 OUTER ITERATIONS 
       AND A TOTAL OF          7 INNER ITERATIONS.
    ------------------------------------------------

 NO OUTPUT CONTROL FOR STRESS PERIOD   13   TIME STEP    2
 
 SOLVING FOR HEAD 
                                                   Max.-Head-Change                         Max.-Flux-Residual
  Residual-Control   Outer-Iter.   Inner-Iter.     Column Row Layer    Maximum-Head-Change  Column Row Layer    Maximum-Flux-Residual          L2-NORM 
          0                 1           2             4    7     1       0.2451593571E-01       4    7    1         0.1289107141E+01      0.3004555921E+01
          0                 2           2             4    7     1      -0.2383453705E-02       4    7    1        -0.1288416679E+00      0.3003179126E+00
          0                 3           2             4    7     1       0.1621821341E-03       4    7    1         0.9012116526E-02      0.2100898204E-01
          0                 4           1             4    7     1      -0.6445296556E-05       4    7    1        -0.3681336859E-03      0.8583595426E-03

    ------------------------------------------------
       NWT REQUIRED            4 OUTER ITERATIONS 
       AND A TOTAL OF          7 INNER ITERATIONS.
    ------------------------------------------------

 NO OUTPUT CONTROL FOR STRESS PERIOD   13   TIME STEP    3
 
 SOLVING FOR HEAD 
                                                   Max.-Head-Change                         Max.-Flux-Residual
  Residual-Control   Outer-Iter.   Inner-Iter.     Column Row Layer    Maximum-Head-Change  Column Row Layer    Maximum-Flux-Residual          L2-NORM 
          0                 1           2             4    7     1       0.2422714037E-01       4    7    1         0.1273821351E+01      0.2974286819E+01
          0                 2           2             4    7     1      -0.2355376619E-02       4    7    1        -0.1273138908E+00      0.2972947530E+00
          0                 3           2             4    7     1       0.1602716241E-03       4    7    1         0.8905252349E-02      0.2079766109E-01
          0                 4           1             4    7     1      -0.6369370019E-05       4    7    1        -0.3637683681E-03      0.8497277922E-03

    ------------------------------------------------
       NWT REQUIRED            4 OUTER ITERATIONS 
       AND A TOTAL OF          7 INNER ITERATIONS.
    ------------------------------------------------

 NO OUTPUT CONTROL FOR STRESS PERIOD   13   TIME STEP    4
 
 SOLVING FOR HEAD 
                                                   Max.-Head-Change                         Max.-Flux-Residual
  Residual-Control   Outer-Iter.   Inner-Iter.     Column Row Layer    Maximum-Head-Change  Column Row Layer    Maximum-Flux-Residual          L2-NORM 
          0                 1           2             4    7     1       0.2394335028E-01       4    7    1         0.1258803604E+01      0.2944518211E+01
          0                 2           2             4    7     1      -0.2327786158E-02       4    7    1        -0.1258129044E+00      0.2943207168E+00
          0                 3           2             4    7     1       0.1583942267E-03       4    7    1         0.8800262104E-02      0.2058920662E-01
          0                 4           1             4    7     1      -0.6294759966E-05       4    7    1        -0.3594796292E-03      0.8412879641E-03

    ------------------------------------------------
       NWT REQUIRED            4 OUTER ITERATIONS 
       AND A TOTAL OF          7 INNER ITERATIONS.
    ------------------------------------------------

 NO OUTPUT CONTROL FOR STRESS PERIOD   13   TIME STEP    5
 
 SOLVING FOR HEAD 
                                                   Max.-Head-Change                         Max.-Flux-Residual
  Residual-Control   Outer-Iter.   Inner-Iter.     Column Row Layer    Maximum-Head-Change  Column Row Layer    Maximum-Flux-Residual          L2-NORM 
          0                 1           2             4    7     1       0.2366481015E-01       4    7    1         0.1244067411E+01      0.2915234841E+01
          0                 2           2             4    7     1      -0.2300706112E-02       4    7    1        -0.1243400591E+00      0.2913962684E+00
          0                 3           2             4    7     1       0.1565515607E-03       4    7    1         0.8697240291E-02      0.2038548131E-01
          0                 4           1             4    7     1      -0.6221529947E-05       4    7    1        -0.3552712765E-03      0.8329798129E-03

    ------------------------------------------------
       NWT REQUIRED            4 OUTER ITERATIONS 
       AND A TOTAL OF          7 INNER ITERATIONS.
    ------------------------------------------------

 NO OUTPUT CONTROL FOR STRESS PERIOD   13   TIME STEP    6
 
 SOLVING FOR HEAD 
                                                   Max.-Head-Change                         Max.-Flux-Residual
  Residual-Control   Outer-Iter.   Inner-Iter.     Column Row Layer    Maximum-Head-Change  Column Row Layer    Maximum-Flux-Residual          L2-NORM 
          0                 1           2             4    7     1       0.2339121361E-01       4    7    1         0.1229596072E+01      0.2886411620E+01
          0                 2           2             4    7     1      -0.2274106696E-02       4    7    1        -0.1228936857E+00      0.2885168463E+00
          0                 3           2             4    7     1       0.1547416004E-03       4    7    1         0.8596070173E-02      0.2018412741E-01
          0                 4           1             4    7     1      -0.6149599949E-05       4    7    1        -0.3511385828E-03      0.8247132493E-03

    ------------------------------------------------
       NWT REQUIRED            4 OUTER ITERATIONS 
       AND A TOTAL OF          7 INNER ITERATIONS.
    ------------------------------------------------

 NO OUTPUT CONTROL FOR STRESS PERIOD   13   TIME STEP    7
 
 SOLVING FOR HEAD 
                                                   Max.-Head-Change                         Max.-Flux-Residual
  Residual-Control   Outer-Iter.   Inner-Iter.     Column Row Layer    Maximum-Head-Change  Column Row Layer    Maximum-Flux-Residual          L2-NORM 
          0                 1           2             4    7     1       0.2312227389E-01       4    7    1         0.1215373701E+01      0.2858045779E+01
          0                 2           2             4    7     1      -0.2247960028E-02       4    7    1        -0.1214721965E+00      0.2856829941E+00
          0                 3           2             4    7     1       0.1529624461E-03       4    7    1         0.8496640581E-02      0.1998603245E-01
          0                 4           1             4    7     1      -0.6078894218E-05       4    7    1        -0.3470769705E-03      0.8166405470E-03

    ------------------------------------------------
       NWT REQUIRED            4 OUTER ITERATIONS 
       AND A TOTAL OF          7 INNER ITERATIONS.
    ------------------------------------------------

 NO OUTPUT CONTROL FOR STRESS PERIOD   13   TIME STEP    8
 
 SOLVING FOR HEAD 
                                                   Max.-Head-Change                         Max.-Flux-Residual
  Residual-Control   Outer-Iter.   Inner-Iter.     Column Row Layer    Maximum-Head-Change  Column Row Layer    Maximum-Flux-Residual          L2-NORM 
          0                 1           2             4    7     1       0.2285798308E-01       4    7    1         0.1201400126E+01      0.2830115742E+01
          0                 2           2             4    7     1      -0.2222265340E-02       4    7    1        -0.1200755742E+00      0.2828928061E+00
          0                 3           2             4    7     1       0.1512140481E-03       4    7    1         0.8398950438E-02      0.1979121053E-01
          0                 4           1             4    7     1      -0.6009410682E-05       4    7    1        -0.3430864231E-03      0.8086909802E-03

    ------------------------------------------------
       NWT REQUIRED            4 OUTER ITERATIONS 
       AND A TOTAL OF          7 INNER ITERATIONS.
    ------------------------------------------------

 NO OUTPUT CONTROL FOR STRESS PERIOD   13   TIME STEP    9
 
 SOLVING FOR HEAD 
                                                   Max.-Head-Change                         Max.-Flux-Residual
  Residual-Control   Outer-Iter.   Inner-Iter.     Column Row Layer    Maximum-Head-Change  Column Row Layer    Maximum-Flux-Residual          L2-NORM 
          0                 1           2             4    7     1       0.2259833913E-01       4    7    1         0.1187674937E+01      0.2802619080E+01
          0                 2           2             4    7     1      -0.2197022430E-02       4    7    1        -0.1187037778E+00      0.2801452947E+00
          0                 3           2             4    7     1       0.1494963912E-03       4    7    1         0.8302996788E-02      0.1959891134E-01
          0                 4           1             4    7     1      -0.5941148650E-05       4    7    1        -0.3391668083E-03      0.8008365245E-03

    ------------------------------------------------
       NWT REQUIRED            4 OUTER ITERATIONS 
       AND A TOTAL OF          7 INNER ITERATIONS.
    ------------------------------------------------

 NO OUTPUT CONTROL FOR STRESS PERIOD   13   TIME STEP   10
 
 SOLVING FOR HEAD 
                                                   Max.-Head-Change                         Max.-Flux-Residual
  Residual-Control   Outer-Iter.   Inner-Iter.     Column Row Layer    Maximum-Head-Change  Column Row Layer    Maximum-Flux-Residual          L2-NORM 
          0                 1           2             4    7     1       0.2234293257E-01       4    7    1         0.1174175981E+01      0.2775542181E+01
          0                 2           2             4    7     1      -0.2172191490E-02       4    7    1        -0.1173545932E+00      0.2774363337E+00
          0                 3           2             4    7     1       0.1478067673E-03       4    7    1         0.8208624791E-02      0.1940946164E-01
          0                 4           1             4    7     1      -0.5874001052E-05       4    7    1        -0.3353118198E-03      0.7930904647E-03

    ------------------------------------------------
       NWT REQUIRED            4 OUTER ITERATIONS 
       AND A TOTAL OF          7 INNER ITERATIONS.
    ------------------------------------------------

 NO OUTPUT CONTROL FOR STRESS PERIOD   13   TIME STEP   11
 
 SOLVING FOR HEAD 
                                                   Max.-Head-Change                         Max.-Flux-Residual
  Residual-Control   Outer-Iter.   Inner-Iter.     Column Row Layer    Maximum-Head-Change  Column Row Layer    Maximum-Flux-Residual          L2-NORM 
          0                 1           2             4    7     1       0.2209191411E-01       4    7    1         0.1160911425E+01      0.2748873029E+01
          0                 2           2             4    7     1      -0.2147787173E-02       4    7    1        -0.1160288366E+00      0.2747753314E+00
          0                 3           2             4    7     1       0.1461461730E-03       4    7    1         0.8115891531E-02      0.1922345380E-01
          0                 4           1             4    7     1      -0.5808006803E-05       4    7    1        -0.3315237575E-03      0.7855449040E-03

    ------------------------------------------------
       NWT REQUIRED            4 OUTER ITERATIONS 
       AND A TOTAL OF          7 INNER ITERATIONS.
    ------------------------------------------------

 NO OUTPUT CONTROL FOR STRESS PERIOD   13   TIME STEP   12
 
 SOLVING FOR HEAD 
                                                   Max.-Head-Change                         Max.-Flux-Residual
  Residual-Control   Outer-Iter.   Inner-Iter.     Column Row Layer    Maximum-Head-Change  Column Row Layer    Maximum-Flux-Residual          L2-NORM 
          0                 1           2             4    7     1       0.2184502344E-01       4    7    1         0.1147867035E+01      0.2722602944E+01
          0                 2           2             4    7     1      -0.2123784168E-02       4    7    1        -0.1147250854E+00      0.2721502103E+00
          0                 3           2             4    7     1       0.1445128860E-03       4    7    1         0.8024697511E-02      0.1903981295E-01
          0                 4           1             4    7     1      -0.5743097977E-05       4    7    1        -0.3277985622E-03      0.7779816796E-03

    ------------------------------------------------
       NWT REQUIRED            4 OUTER ITERATIONS 
       AND A TOTAL OF          7 INNER ITERATIONS.
    ------------------------------------------------

 NO OUTPUT CONTROL FOR STRESS PERIOD   13   TIME STEP   13
 
 SOLVING FOR HEAD 
                                                   Max.-Head-Change                         Max.-Flux-Residual
  Residual-Control   Outer-Iter.   Inner-Iter.     Column Row Layer    Maximum-Head-Change  Column Row Layer    Maximum-Flux-Residual          L2-NORM 
          0                 1           2             4    7     1       0.2160228321E-01       4    7    1         0.1135044013E+01      0.2696717316E+01
          0                 2           2             4    7     1      -0.2100184680E-02       4    7    1        -0.1134434596E+00      0.2695634853E+00
          0                 3           2             4    7     1       0.1429070564E-03       4    7    1         0.7935051090E-02      0.1885891509E-01
          0                 4           1             4    7     1      -0.5679280446E-05       4    7    1        -0.3241366126E-03      0.7706322171E-03

    ------------------------------------------------
       NWT REQUIRED            4 OUTER ITERATIONS 
       AND A TOTAL OF          7 INNER ITERATIONS.
    ------------------------------------------------

 NO OUTPUT CONTROL FOR STRESS PERIOD   13   TIME STEP   14
 
 SOLVING FOR HEAD 
                                                   Max.-Head-Change                         Max.-Flux-Residual
  Residual-Control   Outer-Iter.   Inner-Iter.     Column Row Layer    Maximum-Head-Change  Column Row Layer    Maximum-Flux-Residual          L2-NORM 
          0                 1           2             4    7     1       0.2136330642E-01       4    7    1         0.1122421484E+01      0.2671208384E+01
          0                 2           2             4    7     1      -0.2076951081E-02       4    7    1        -0.1121818727E+00      0.2670143977E+00
          0                 3           2             4    7     1       0.1413261239E-03       4    7    1         0.7846806369E-02      0.1868071465E-01
          0                 4           1             4    7     1      -0.5616451861E-05       4    7    1        -0.3205318890E-03      0.7633624157E-03

    ------------------------------------------------
       NWT REQUIRED            4 OUTER ITERATIONS 
       AND A TOTAL OF          7 INNER ITERATIONS.
    ------------------------------------------------

 NO OUTPUT CONTROL FOR STRESS PERIOD   13   TIME STEP   15
 
 SOLVING FOR HEAD 
                                                   Max.-Head-Change                         Max.-Flux-Residual
  Residual-Control   Outer-Iter.   Inner-Iter.     Column Row Layer    Maximum-Head-Change  Column Row Layer    Maximum-Flux-Residual          L2-NORM 
          0                 1           2             4    7     1       0.2112839810E-01       4    7    1         0.1110016134E+01      0.2646074233E+01
          0                 2           2             4    7     1      -0.2054113029E-02       4    7    1        -0.1109419926E+00      0.2645026157E+00
          0                 3           2             4    7     1       0.1397721065E-03       4    7    1         0.7760079976E-02      0.1850499402E-01
          0                 4           1             4    7     1      -0.5554693386E-05       4    7    1        -0.3169892111E-03      0.7561757312E-03

    ------------------------------------------------
       NWT REQUIRED            4 OUTER ITERATIONS 
       AND A TOTAL OF          7 INNER ITERATIONS.
    ------------------------------------------------

 NO OUTPUT CONTROL FOR STRESS PERIOD   13   TIME STEP   16
 
 SOLVING FOR HEAD 
                                                   Max.-Head-Change                         Max.-Flux-Residual
  Residual-Control   Outer-Iter.   Inner-Iter.     Column Row Layer    Maximum-Head-Change  Column Row Layer    Maximum-Flux-Residual          L2-NORM 
          0                 1           2             4    7     1       0.2089704247E-01       4    7    1         0.1097799674E+01      0.2621300165E+01
          0                 2           2             4    7     1      -0.2031620376E-02       4    7    1        -0.1097209919E+00      0.2620268798E+00
          0                 3           2             4    7     1       0.1382415922E-03       4    7    1         0.7674674177E-02      0.1833186212E-01
          0                 4           1             4    7     1      -0.5493868827E-05       4    7    1        -0.3135004620E-03      0.7490741322E-03

    ------------------------------------------------
       NWT REQUIRED            4 OUTER ITERATIONS 
       AND A TOTAL OF          7 INNER ITERATIONS.
    ------------------------------------------------

 NO OUTPUT CONTROL FOR STRESS PERIOD   13   TIME STEP   17
 
 SOLVING FOR HEAD 
                                                   Max.-Head-Change                         Max.-Flux-Residual
  Residual-Control   Outer-Iter.   Inner-Iter.     Column Row Layer    Maximum-Head-Change  Column Row Layer    Maximum-Flux-Residual          L2-NORM 
          0                 1           2             4    7     1       0.2066955751E-01       4    7    1         0.1085789469E+01      0.2596878265E+01
          0                 2           2             4    7     1      -0.2009504039E-02       4    7    1        -0.1085206059E+00      0.2595862290E+00
          0                 3           2             4    7     1       0.1367366844E-03       4    7    1         0.7590710308E-02      0.1816115840E-01
          0                 4           1             4    7     1      -0.5434062456E-05       4    7    1        -0.3100706417E-03      0.7420940488E-03

    ------------------------------------------------
       NWT REQUIRED            4 OUTER ITERATIONS 
       AND A TOTAL OF          7 INNER ITERATIONS.
    ------------------------------------------------

 NO OUTPUT CONTROL FOR STRESS PERIOD   13   TIME STEP   18
 
 SOLVING FOR HEAD 
                                                   Max.-Head-Change                         Max.-Flux-Residual
  Residual-Control   Outer-Iter.   Inner-Iter.     Column Row Layer    Maximum-Head-Change  Column Row Layer    Maximum-Flux-Residual          L2-NORM 
          0                 1           2             4    7     1       0.2044556713E-01       4    7    1         0.1073965248E+01      0.2572804395E+01
          0                 2           2             4    7     1      -0.1987727452E-02       4    7    1        -0.1073388089E+00      0.2571805210E+00
          0                 3           2             4    7     1       0.1352548944E-03       4    7    1         0.7508046691E-02      0.1799289208E-01
          0                 4           1             4    7     1      -0.5375173998E-05       4    7    1        -0.3066939057E-03      0.7352107971E-03

    ------------------------------------------------
       NWT REQUIRED            4 OUTER ITERATIONS 
       AND A TOTAL OF          7 INNER ITERATIONS.
    ------------------------------------------------

 NO OUTPUT CONTROL FOR STRESS PERIOD   13   TIME STEP   19
 
 SOLVING FOR HEAD 
                                                   Max.-Head-Change                         Max.-Flux-Residual
  Residual-Control   Outer-Iter.   Inner-Iter.     Column Row Layer    Maximum-Head-Change  Column Row Layer    Maximum-Flux-Residual          L2-NORM 
          0                 1           2             4    7     1       0.2022498705E-01       4    7    1         0.1062322215E+01      0.2549072389E+01
          0                 2           2             4    7     1      -0.1966282422E-02       4    7    1        -0.1061751212E+00      0.2548084714E+00
          0                 3           2             4    7     1       0.1337956661E-03       4    7    1         0.7426649804E-02      0.1782697746E-01
          0                 4           1             4    7     1      -0.5317182959E-05       4    7    1        -0.3033689411E-03      0.7284544452E-03

    ------------------------------------------------
       NWT REQUIRED            4 OUTER ITERATIONS 
       AND A TOTAL OF          7 INNER ITERATIONS.
    ------------------------------------------------

 NO OUTPUT CONTROL FOR STRESS PERIOD   13   TIME STEP   20
 
 SOLVING FOR HEAD 
                                                   Max.-Head-Change                         Max.-Flux-Residual
  Residual-Control   Outer-Iter.   Inner-Iter.     Column Row Layer    Maximum-Head-Change  Column Row Layer    Maximum-Flux-Residual          L2-NORM 
          0                 1           2             4    7     1       0.2000786719E-01       4    7    1         0.1050863352E+01      0.2525672446E+01
          0                 2           2             4    7     1      -0.1945173800E-02       4    7    1        -0.1050298411E+00      0.2524699031E+00
          0                 3           2             4    7     1       0.1323593281E-03       4    7    1         0.7346540457E-02      0.1766343640E-01
          0                 4           1             4    7     1      -0.5260100738E-05       4    7    1        -0.3000965498E-03      0.7217877777E-03

    ------------------------------------------------
       NWT REQUIRED            4 OUTER ITERATIONS 
       AND A TOTAL OF          7 INNER ITERATIONS.
    ------------------------------------------------

 NO OUTPUT CONTROL FOR STRESS PERIOD   13   TIME STEP   21
 
 SOLVING FOR HEAD 
                                                   Max.-Head-Change                         Max.-Flux-Residual
  Residual-Control   Outer-Iter.   Inner-Iter.     Column Row Layer    Maximum-Head-Change  Column Row Layer    Maximum-Flux-Residual          L2-NORM 
          0                 1           2             4    7     1       0.1979412407E-01       4    7    1         0.1039583895E+01      0.2502601850E+01
          0                 2           2             4    7     1      -0.1924393472E-02       4    7    1        -0.1039024923E+00      0.2501641144E+00
          0                 3           2             4    7     1       0.1309453290E-03       4    7    1         0.7267685374E-02      0.1750195923E-01
          0                 4           1             4    7     1      -0.5203906611E-05       4    7    1        -0.2968753893E-03      0.7151857799E-03

    ------------------------------------------------
       NWT REQUIRED            4 OUTER ITERATIONS 
       AND A TOTAL OF          7 INNER ITERATIONS.
    ------------------------------------------------

 NO OUTPUT CONTROL FOR STRESS PERIOD   13   TIME STEP   22
 
 SOLVING FOR HEAD 
                                                   Max.-Head-Change                         Max.-Flux-Residual
  Residual-Control   Outer-Iter.   Inner-Iter.     Column Row Layer    Maximum-Head-Change  Column Row Layer    Maximum-Flux-Residual          L2-NORM 
          0                 1           2             4    7     1       0.1958367478E-01       4    7    1         0.1028479516E+01      0.2479845223E+01
          0                 2           2             4    7     1      -0.1903933377E-02       4    7    1        -0.1027926423E+00      0.2478897362E+00
          0                 3           2             4    7     1       0.1295531211E-03       4    7    1         0.7190054300E-02      0.1734321078E-01
          0                 4           1             4    7     1      -0.5148579164E-05       4    7    1        -0.2937042725E-03      0.7090441738E-03

    ------------------------------------------------
       NWT REQUIRED            4 OUTER ITERATIONS 
       AND A TOTAL OF          7 INNER ITERATIONS.
    ------------------------------------------------

 NO OUTPUT CONTROL FOR STRESS PERIOD   13   TIME STEP   23
 
 SOLVING FOR HEAD 
                                                   Max.-Head-Change                         Max.-Flux-Residual
  Residual-Control   Outer-Iter.   Inner-Iter.     Column Row Layer    Maximum-Head-Change  Column Row Layer    Maximum-Flux-Residual          L2-NORM 
          0                 1           2             4    7     1       0.1937643911E-01       4    7    1         0.1017545918E+01      0.2457403180E+01
          0                 2           2             4    7     1      -0.1883785717E-02       4    7    1        -0.1016998614E+00      0.2456467459E+00
          0                 3           2             4    7     1       0.1281821720E-03       4    7    1         0.7113617169E-02      0.1718617479E-01
          0                 4           1             4    7     1      -0.5094095833E-05       4    7    1        -0.2905818817E-03      0.7023029654E-03

    ------------------------------------------------
       NWT REQUIRED            4 OUTER ITERATIONS 
       AND A TOTAL OF          7 INNER ITERATIONS.
    ------------------------------------------------

 NO OUTPUT CONTROL FOR STRESS PERIOD   13   TIME STEP   24
 
 SOLVING FOR HEAD 
                                                   Max.-Head-Change                         Max.-Flux-Residual
  Residual-Control   Outer-Iter.   Inner-Iter.     Column Row Layer    Maximum-Head-Change  Column Row Layer    Maximum-Flux-Residual          L2-NORM 
          0                 1           2             4    7     1       0.1917220498E-01       4    7    1         0.1006771586E+01      0.2435267578E+01
          0                 2           2             4    7     1      -0.1863929872E-02       4    7    1        -0.1006229990E+00      0.2434343880E+00
          0                 3           2             4    7     1       0.1268310802E-03       4    7    1         0.7038293501E-02      0.1703143096E-01
          0                 4           1             4    7     1      -0.5040401702E-05       4    7    1        -0.2875049943E-03      0.6959748728E-03

    ------------------------------------------------
       NWT REQUIRED            4 OUTER ITERATIONS 
       AND A TOTAL OF          7 INNER ITERATIONS.
    ------------------------------------------------

 NO OUTPUT CONTROL FOR STRESS PERIOD   13   TIME STEP   25
 
 SOLVING FOR HEAD 
                                                   Max.-Head-Change                         Max.-Flux-Residual
  Residual-Control   Outer-Iter.   Inner-Iter.     Column Row Layer    Maximum-Head-Change  Column Row Layer    Maximum-Flux-Residual          L2-NORM 
          0                 1           2             4    7     1       0.1897117753E-01       4    7    1         0.9961675857E+00      0.2413436597E+01
          0                 2           2             4    7     1      -0.1844385785E-02       4    7    1        -0.9956316087E-01      0.2412524686E+00
          0                 3           2             4    7     1       0.1255012018E-03       4    7    1         0.6964160643E-02      0.1687881316E-01
          0                 4           1             4    7     1      -0.4987550650E-05       4    7    1        -0.2844767509E-03      0.6897521162E-03

    ------------------------------------------------
       NWT REQUIRED            4 OUTER ITERATIONS 
       AND A TOTAL OF          7 INNER ITERATIONS.
    ------------------------------------------------

 NO OUTPUT CONTROL FOR STRESS PERIOD   13   TIME STEP   26
 
 SOLVING FOR HEAD 
                                                   Max.-Head-Change                         Max.-Flux-Residual
  Residual-Control   Outer-Iter.   Inner-Iter.     Column Row Layer    Maximum-Head-Change  Column Row Layer    Maximum-Flux-Residual          L2-NORM 
          0                 1           2             4    7     1       0.1877314314E-01       4    7    1         0.9857224930E+00      0.2391905446E+01
          0                 2           2             4    7     1      -0.1825132690E-02       4    7    1        -0.9851920528E-01      0.2391004442E+00
          0                 3           2             4    7     1       0.1241911238E-03       4    7    1         0.6891138718E-02      0.1672827111E-01
          0                 4           1             4    7     1      -0.4935486726E-05       4    7    1        -0.2814938755E-03      0.6835901403E-03

    ------------------------------------------------
       NWT REQUIRED            4 OUTER ITERATIONS 
       AND A TOTAL OF          7 INNER ITERATIONS.
    ------------------------------------------------

 NO OUTPUT CONTROL FOR STRESS PERIOD   13   TIME STEP   27
 
 SOLVING FOR HEAD 
                                                   Max.-Head-Change                         Max.-Flux-Residual
  Residual-Control   Outer-Iter.   Inner-Iter.     Column Row Layer    Maximum-Head-Change  Column Row Layer    Maximum-Flux-Residual          L2-NORM 
          0                 1           2             4    7     1       0.1857789769E-01       4    7    1         0.9754252304E+00      0.2370654764E+01
          0                 2           2             4    7     1      -0.1806150740E-02       4    7    1        -0.9749002502E-01      0.2369765344E+00
          0                 3           2             4    7     1       0.1228994955E-03       4    7    1         0.6819150270E-02      0.1657974391E-01
          0                 4           1             4    7     1      -0.4884156049E-05       4    7    1        -0.2785532258E-03      0.6775385591E-03

    ------------------------------------------------
       NWT REQUIRED            4 OUTER ITERATIONS 
       AND A TOTAL OF          7 INNER ITERATIONS.
    ------------------------------------------------

 NO OUTPUT CONTROL FOR STRESS PERIOD   13   TIME STEP   28
 
 SOLVING FOR HEAD 
                                                   Max.-Head-Change                         Max.-Flux-Residual
  Residual-Control   Outer-Iter.   Inner-Iter.     Column Row Layer    Maximum-Head-Change  Column Row Layer    Maximum-Flux-Residual          L2-NORM 
          0                 1           2             4    7     1       0.1838565163E-01       4    7    1         0.9652872790E+00      0.2349693623E+01
          0                 2           2             4    7     1      -0.1787460397E-02       4    7    1        -0.9647676763E-01      0.2348814446E+00
          0                 3           2             4    7     1       0.1216277105E-03       4    7    1         0.6748275633E-02      0.1643314052E-01
          0                 4           1             4    7     1      -0.4833613305E-05       4    7    1        -0.2756580668E-03      0.6715230255E-03

    ------------------------------------------------
       NWT REQUIRED            4 OUTER ITERATIONS 
       AND A TOTAL OF          7 INNER ITERATIONS.
    ------------------------------------------------

 NO OUTPUT CONTROL FOR STRESS PERIOD   13   TIME STEP   29
 
 SOLVING FOR HEAD 
                                                   Max.-Head-Change                         Max.-Flux-Residual
  Residual-Control   Outer-Iter.   Inner-Iter.     Column Row Layer    Maximum-Head-Change  Column Row Layer    Maximum-Flux-Residual          L2-NORM 
          0                 1           2             4    7     1       0.1819620213E-01       4    7    1         0.9552974866E+00      0.2329017802E+01
          0                 2           2             4    7     1      -0.1769041940E-02       4    7    1        -0.9547831841E-01      0.2328149504E+00
          0                 3           1             4    7     1       0.1203744285E-03       4    7    1         0.6678436773E-02      0.1628863510E-01
          0                 4           1             4    7     1      -0.4783809221E-05       4    7    1        -0.2728052364E-03      0.6656278077E-03

    ------------------------------------------------
       NWT REQUIRED            4 OUTER ITERATIONS 
       AND A TOTAL OF          6 INNER ITERATIONS.
    ------------------------------------------------

 NO OUTPUT CONTROL FOR STRESS PERIOD   13   TIME STEP   30



 STREAM LISTING     PERIOD     13   STEP       30

 LAYER ROW COL. STREAM  RCH.  FLOW INTO     FLOW TO   FLOW OUT OF   OVRLND.     DIRECT     STREAM       STREAM     STREAM     STREAM   STREAMBED  STREAMBED
                SEG.NO.  NO.  STRM. RCH.    AQUIFER    STRM. RCH.    RUNOFF     PRECIP       ET          HEAD       DEPTH      WIDTH   CONDCTNC.   GRADIENT

   1    1    1     1     1    2.3000E+01  2.3574E-01   2.2764E+01  0.000E+00  0.000E+00  0.000E+00  1.09420E+03  1.148E+00  1.263E+01  5.684E-02  1.383E+00
   1    2    2     1     2    2.2764E+01  3.6445E-01   2.2400E+01  0.000E+00  0.000E+00  0.000E+00  1.08920E+03  1.143E+00  1.257E+01  8.797E-02  1.381E+00
   1    3    3     1     3    2.2400E+01  3.1019E-01   2.2089E+01  0.000E+00  0.000E+00  0.000E+00  1.08356E+03  1.138E+00  1.250E+01  7.497E-02  1.379E+00
   1    3    4     1     4    2.2089E+01  2.8513E-01   2.1804E+01  0.000E+00  0.000E+00  0.000E+00  1.07854E+03  1.133E+00  1.243E+01  6.899E-02  1.378E+00
   1    4    5     2     1    1.9804E+01  3.1551E-01   1.9489E+01  0.000E+00  0.000E+00  0.000E+00  1.07298E+03  1.045E+00  1.200E+01  7.800E-02  1.348E+00
   1    5    6     2     2    1.9489E+01  2.4216E-01   1.9247E+01  0.000E+00  0.000E+00  0.000E+00  1.06755E+03  1.036E+00  1.200E+01  6.000E-02  1.345E+00
   1    6    6     2     3    1.9247E+01  2.4170E-01   1.9005E+01  0.000E+00  0.000E+00  0.000E+00  1.06282E+03  1.028E+00  1.200E+01  6.000E-02  1.343E+00
   1    7    6     2     4    1.9005E+01  2.4123E-01   1.8764E+01  0.000E+00  0.000E+00  0.000E+00  1.05810E+03  1.020E+00  1.200E+01  6.000E-02  1.340E+00
   1    8    6     2     5    1.8764E+01  2.4076E-01   1.8523E+01  0.000E+00  0.000E+00  0.000E+00  1.05337E+03  1.013E+00  1.200E+01  6.000E-02  1.338E+00
   1    3    5     3     1    2.0000E+00  2.8252E-01   1.7175E+00  0.000E+00  0.000E+00  0.000E+00  1.07555E+03  1.909E+00  9.636E+00  7.227E-02  1.955E+00
   1    3    6     3     2    1.7175E+00  2.4905E-01   1.4684E+00  0.000E+00  0.000E+00  0.000E+00  1.07264E+03  1.727E+00  8.909E+00  6.682E-02  1.864E+00
   1    3    7     3     3    1.4684E+00  1.9718E-01   1.2712E+00  0.000E+00  0.000E+00  0.000E+00  1.06987E+03  1.555E+00  8.218E+00  5.547E-02  1.777E+00
   1    4    8     3     4    1.2712E+00  2.2567E-01   1.0456E+00  0.000E+00  0.000E+00  0.000E+00  1.06682E+03  1.364E+00  7.455E+00  6.709E-02  1.682E+00
   1    5    8     3     5    1.0456E+00  1.5790E-01   8.8768E-01  0.000E+00  0.000E+00  0.000E+00  1.06362E+03  1.164E+00  6.655E+00  4.991E-02  1.582E+00
   1    6    8     3     6    8.8768E-01  5.5980E-02   8.3170E-01  0.000E+00  0.000E+00  0.000E+00  1.06158E+03  1.036E+00  6.145E+00  1.844E-02  1.518E+00
   1    5   10     4     1    1.0000E+01  9.0919E-02   9.9091E+00  0.000E+00  0.000E+00  0.000E+00  1.07836E+03  6.368E-01  1.000E+01  2.500E-02  1.212E+00
   1    5    9     4     2    9.9091E+00  1.8158E-01   9.7275E+00  0.000E+00  0.000E+00  0.000E+00  1.07154E+03  6.315E-01  1.000E+01  5.000E-02  1.211E+00
   1    6    8     4     3    9.7275E+00  1.2689E-01   9.6006E+00  0.000E+00  0.000E+00  0.000E+00  1.06381E+03  6.256E-01  1.000E+01  3.500E-02  1.209E+00
   1    6    8     5     1    1.0432E+01  2.2686E-01   1.0205E+01  0.000E+00  0.000E+00  0.000E+00  1.05868E+03  6.790E-01  1.542E+01  6.166E-02  1.226E+00
   1    7    7     5     2    1.0205E+01  2.7894E-01   9.9265E+00  0.000E+00  0.000E+00  0.000E+00  1.05417E+03  6.732E-01  1.519E+01  7.594E-02  1.224E+00
   1    8    7     5     3    9.9265E+00  1.9221E-01   9.7343E+00  0.000E+00  0.000E+00  0.000E+00  1.04992E+03  6.676E-01  1.497E+01  5.241E-02  1.223E+00
   1    8    6     5     4    9.7343E+00  1.3577E-01   9.5985E+00  0.000E+00  0.000E+00  0.000E+00  1.04691E+03  6.637E-01  1.482E+01  3.706E-02  1.221E+00
   1    9    6     6     1    2.8121E+01  2.5841E-01   2.7863E+01  0.000E+00  0.000E+00  0.000E+00  1.04403E+03  1.307E+00  1.200E+01  6.000E-02  1.436E+00
   1   10    7     6     2    2.7863E+01  2.5797E-01   2.7605E+01  0.000E+00  0.000E+00  0.000E+00  1.03948E+03  1.300E+00  1.200E+01  6.000E-02  1.433E+00
   1   11    7     6     3    2.7605E+01  2.5753E-01   2.7348E+01  0.000E+00  0.000E+00  0.000E+00  1.03493E+03  1.292E+00  1.200E+01  6.000E-02  1.431E+00
   1   12    7     6     4    2.7348E+01  2.5710E-01   2.7090E+01  0.000E+00  0.000E+00  0.000E+00  1.03038E+03  1.285E+00  1.200E+01  6.000E-02  1.428E+00
   1   13    7     6     5    2.7090E+01  4.5810E-04   2.7090E+01  0.000E+00  0.000E+00  0.000E+00  1.02719E+03  1.281E+00  1.200E+01  2.400E-02  6.362E-03
   1   14    9     7     1    1.5000E+02  1.3296E+00   1.4867E+02  0.000E+00  0.000E+00  0.000E+00  1.03987E+03  2.288E+00  5.529E+01  5.593E-01  7.924E-01
   1   13    8     7     2    1.4867E+02  1.8008E+00   1.4687E+02  0.000E+00  0.000E+00  0.000E+00  1.03478E+03  2.279E+00  5.526E+01  6.148E-01  9.764E-01
   1   13    7     7     3    1.4687E+02  1.4067E+00   1.4546E+02  0.000E+00  0.000E+00  0.000E+00  1.02969E+03  2.271E+00  5.522E+01  5.585E-01  8.396E-01
   1   13    6     8     1    1.7255E+02  8.7516E-01   1.7168E+02  0.000E+00  0.000E+00  0.000E+00  1.02484E+03  2.966E+00  4.301E+01  4.382E-01  6.657E-01
   1   13    5     8     2    1.7168E+02  1.3736E-01   1.7154E+02  0.000E+00  0.000E+00  0.000E+00  1.01859E+03  2.963E+00  4.296E+01  4.378E-01  1.046E-01
   1   13    4     8     3    1.7154E+02 -2.5487E+00   1.7409E+02  0.000E+00  0.000E+00  0.000E+00  1.01235E+03  2.970E+00  4.307E+01  4.389E+00 -1.936E-01
   1   13    3     8     4    1.7409E+02 -3.7215E+00   1.7781E+02  0.000E+00  0.000E+00  0.000E+00  1.00612E+03  2.991E+00  4.336E+01  4.419E+00 -2.807E-01
   1   13    2     8     5    1.7781E+02 -2.6044E+00   1.8042E+02  0.000E+00  0.000E+00  0.000E+00  9.99886E+02  3.011E+00  4.365E+01  4.448E+00 -1.952E-01
   1   13    1     8     6    1.8042E+02 -2.0003E+00   1.8242E+02  0.000E+00  0.000E+00  0.000E+00  9.94900E+02  3.025E+00  4.386E+01  2.682E+00 -2.486E-01





UNSATURATED ZONE PACKAGE VOLUMETRIC BUDGET FOR  TIME STEP    30 STRESS PERIOD   13
  ------------------------------------------------------------------------------



     CUMULATIVE VOLUMES      L**3       RATES FOR THIS TIME STEP      L**3/T
     ------------------                 ------------------------

           IN:                                      IN:
           ---                                      ---
        INFILTRATION =   461862817.0964          INFILTRATION =           0.8475

          OUT:                                     OUT:
          ----                                     ----
              UZF ET =   423349257.2100                UZF ET =           0.7500
        UZF RECHARGE =    37929659.2359          UZF RECHARGE =           0.0002

            IN - OUT =      583900.6506              IN - OUT =       9.7274E-02

          STORAGE:                                 STORAGE:
          --------                                 --------
      STORAGE CHANGE =      583902.6175        STORAGE CHANGE =       9.7274E-02

 PERCENT DISCREPANCY IS DIFFERENCE BETWEEN IN-OUT MINUS CHANGE IN STORAGE
 DIVIDED BY THE AVERAGE OF IN AND OUT TIMES 100

 PERCENT DISCREPANCY =           0.00     PERCENT DISCREPANCY =           0.00






1
  VOLUMETRIC BUDGET FOR AGRICULTURAL FIELDS AT  END OF TIME STEP   30, STRESS PERIOD  13
  ------------------------------------------------------------------------------

     CUMULATIVE VOLUMES      L**3       RATES FOR THIS TIME STEP      L**3/T
     ------------------                 ------------------------

           IN:                                      IN:
           ---                                      ---
               AG WELLS  =   435042048.0000                 AG WELLS  =           0.0000
      DIVERSION SEGMENTS =           0.0000        DIVERSION SEGMENTS =           0.0000
           GW IRRIGATION =           0.0000             GW IRRIGATION =           0.0000
           SW IRRIGATION =           0.0000             SW IRRIGATION =           0.0000
        SYSTEM LOSSES GW =           0.0000          SYSTEM LOSSES GW =           0.0000
        SYSTEM LOSSES SW =           0.0000          SYSTEM LOSSES SW =           0.0000

                TOTAL IN =   435042048.0000                  TOTAL IN =           0.0000

          OUT:                                     OUT:
          ----                                     ----
               AG WELLS  =           0.0000                 AG WELLS  =           0.0000
      DIVERSION SEGMENTS =           0.0000        DIVERSION SEGMENTS =           0.0000
           GW IRRIGATION =   435042048.0000             GW IRRIGATION =           0.0000
           SW IRRIGATION =           0.0000             SW IRRIGATION =           0.0000
        SYSTEM LOSSES GW =           0.0000          SYSTEM LOSSES GW =           0.0000
        SYSTEM LOSSES SW =           0.0000          SYSTEM LOSSES SW =           0.0000

               TOTAL OUT =   435042048.0000                 TOTAL OUT =           0.0000

                IN - OUT =           0.0000                  IN - OUT =           0.0000

     PERCENT DISCREPANCY =           0.00         PERCENT DISCREPANCY =           0.00



1
  VOLUMETRIC BUDGET FOR ENTIRE MODEL AT END OF TIME STEP   30, STRESS PERIOD  13
  ------------------------------------------------------------------------------

     CUMULATIVE VOLUMES      L**3       RATES FOR THIS TIME STEP      L**3/T
     ------------------                 ------------------------

           IN:                                      IN:
           ---                                      ---
             STORAGE     =   559324864.0000               STORAGE     =           7.0180
       CONSTANT HEAD     =           0.0000         CONSTANT HEAD     =           0.0000
     HEAD DEP BOUNDS     =     9032907.0000       HEAD DEP BOUNDS     =           0.2853
      STREAM LEAKAGE     =   394483296.0000        STREAM LEAKAGE     =          11.4595
        UZF RECHARGE     =    37929660.0000          UZF RECHARGE     =       2.2618E-04
               GW ET     =           0.0000                 GW ET     =           0.0000
     SURFACE LEAKAGE     =           0.0000       SURFACE LEAKAGE     =           0.0000
           AG WELLS      =           0.0000             AG WELLS      =           0.0000

                TOTAL IN =  1000770752.0000                  TOTAL IN =          18.7631

          OUT:                                     OUT:
          ----                                     ----
             STORAGE     =   214046848.0000               STORAGE     =           7.5975
       CONSTANT HEAD     =           0.0000         CONSTANT HEAD     =           0.0000
     HEAD DEP BOUNDS     =     9325075.0000       HEAD DEP BOUNDS     =           0.2905
      STREAM LEAKAGE     =   328598016.0000        STREAM LEAKAGE     =          10.8750
        UZF RECHARGE     =           0.0000          UZF RECHARGE     =           0.0000
               GW ET     =    13758094.0000                 GW ET     =           0.0000
     SURFACE LEAKAGE     =           0.0000       SURFACE LEAKAGE     =           0.0000
           AG WELLS      =   435042048.0000             AG WELLS      =           0.0000

               TOTAL OUT =  1000770048.0000                 TOTAL OUT =          18.7631

                IN - OUT =         704.0000                  IN - OUT =       7.6294E-06

     PERCENT DISCREPANCY =           0.00         PERCENT DISCREPANCY =           0.00






         TIME SUMMARY AT END OF TIME STEP   30 IN STRESS PERIOD   13
                    SECONDS     MINUTES      HOURS       DAYS        YEARS
                    -----------------------------------------------------------
   TIME STEP LENGTH  87667.      1461.1      24.352      1.0147     2.77799E-03
 STRESS PERIOD TIME 2.63000E+06  43833.      730.56      30.440     8.33397E-02
         TOTAL TIME 3.16463E+07 5.27439E+05  8790.6      366.28      1.0028    
1
1
                            STRESS PERIOD NO.   14, LENGTH =   2630000.    
                            -----------------------------------------------

                              NUMBER OF TIME STEPS =    30

                               MULTIPLIER FOR DELT =     1.000

                            INITIAL TIME STEP SIZE =   87666.66    

 REUSING NON-PARAMETER GHB CELLS FROM LAST STRESS PERIOD

      2 GHB CELLS

 REUSING STREAM SEGMENT DATA FROM LAST STRESS PERIOD



            AREAL INFILTRATION RATE
 READING ON UNIT   19 WITH FORMAT: (FREE)              

            1           2           3           4           5           6           7           8           9          10
 ........................................................................................................................
   1   1.0000E-10  2.0000E-10   0.000       0.000       0.000       0.000       0.000       0.000       0.000       0.000    
   2   2.0000E-10  1.0000E-10  2.0000E-10   0.000       0.000      8.0000E-10  8.0000E-10  5.0000E-10   0.000       0.000    
   3    0.000      5.0000E-10  1.0000E-10  1.0000E-10  8.0000E-10  8.0000E-10  5.0000E-10  5.0000E-10   0.000       0.000    
   4   8.0000E-10  5.0000E-10  1.0000E-10  1.0000E-10  1.0000E-10  1.0000E-10  1.0000E-10  1.0000E-10  2.0000E-10   0.000    
   5   8.0000E-10  5.0000E-10  1.0000E-10  1.0000E-10  1.0000E-10  1.0000E-10  1.0000E-10  1.0000E-10  1.0000E-10  1.0000E-10
   6   8.0000E-10  5.0000E-10  5.0000E-10  2.0000E-10  2.0000E-10  1.0000E-10  1.0000E-10  1.0000E-10  1.0000E-10  5.0000E-10
   7   8.0000E-10  5.0000E-10  5.0000E-10  2.0000E-10  2.0000E-10  1.0000E-10  1.0000E-10  2.0000E-10  2.0000E-10   0.000    
   8    0.000      5.0000E-10  5.0000E-10  2.0000E-10  2.0000E-10  1.0000E-10  1.0000E-10  2.0000E-10  5.0000E-10   0.000    
   9    0.000      5.0000E-10  5.0000E-10  2.0000E-10  2.0000E-10  1.0000E-10  1.0000E-10  2.0000E-10  5.0000E-10   0.000    
  10    0.000      5.0000E-10  5.0000E-10  2.0000E-10  2.0000E-10  1.0000E-10  1.0000E-10  2.0000E-10  5.0000E-10  8.0000E-10
  11    0.000      1.0000E-10  1.0000E-10  1.0000E-10  1.0000E-10  1.0000E-10  1.0000E-10  2.0000E-10  5.0000E-10   0.000    
  12   1.0000E-10  1.0000E-10  1.0000E-10  1.0000E-10  1.0000E-10  1.0000E-10  1.0000E-10  1.0000E-10  2.0000E-10   0.000    
  13   1.0000E-10  1.0000E-10  2.0000E-10  2.0000E-10  2.0000E-10  2.0000E-10  2.0000E-10  1.0000E-10  1.0000E-10   0.000    
  14    0.000      2.0000E-10  5.0000E-10  5.0000E-10  5.0000E-10  5.0000E-10  5.0000E-10  2.0000E-10  1.0000E-10   0.000    
  15    0.000       0.000      8.0000E-10  8.0000E-10  8.0000E-10  8.0000E-10   0.000       0.000       0.000       0.000    

                  ET RATE =  5.000000E-10

 USING ET EXTINCTION DEPTH FROM PREVIOUS STRESS PERIOD. CURRENT PERIOD IS:      14

 USING EXTINCTION WATER CONTENT FROM PREVIOUS STRESS PERIOD. CURRENT PERIOD IS:      14

 USING AIR ENTRY PRESSURE FROM PREVIOUS STRESS PERIOD. CURRENT PERIOD IS:      14

 USING ROOT PRESSURE HEAD FROM PREVIOUS STRESS PERIOD. CURRENT PERIOD IS:      14

 USING ROOT ACTIVITY FROM PREVIOUS STRESS PERIOD. CURRENT PERIOD IS:      14

 PROCESSING AG STRESS PERIOD DATA

 READING AG STRESS PERIOD DATA

 READING IRRIGATION WELL

 END PROCESSING AG STRESS PERIOD DATA OPTIONS
 
 SOLVING FOR HEAD 
                                                   Max.-Head-Change                         Max.-Flux-Residual
  Residual-Control   Outer-Iter.   Inner-Iter.     Column Row Layer    Maximum-Head-Change  Column Row Layer    Maximum-Flux-Residual          L2-NORM 
          0                 1           2             4    7     1       0.1800947280E-01       4    7    1         0.9454526905E+00      0.2312263050E+01
          0                 2           2             4    7     1      -0.1750888388E-02       4    7    1        -0.9449436134E-01      0.2311016710E+00
          0                 3           1             4    7     1       0.1191391688E-03       4    7    1         0.6609611586E-02      0.1616780438E-01
          0                 4           1             4    7     1      -0.4734718581E-05       4    7    1        -0.2699938027E-03      0.6606799093E-03

    ------------------------------------------------
       NWT REQUIRED            4 OUTER ITERATIONS 
       AND A TOTAL OF          6 INNER ITERATIONS.
    ------------------------------------------------

 NO OUTPUT CONTROL FOR STRESS PERIOD   14   TIME STEP    1
 
 SOLVING FOR HEAD 
                                                   Max.-Head-Change                         Max.-Flux-Residual
  Residual-Control   Outer-Iter.   Inner-Iter.     Column Row Layer    Maximum-Head-Change  Column Row Layer    Maximum-Flux-Residual          L2-NORM 
          0                 1           2             4    7     1       0.1782538205E-01       4    7    1         0.9357489064E+00      0.2302062921E+01
          0                 2           2             4    7     1      -0.1732990475E-02       4    7    1        -0.9352449823E-01      0.2300786408E+00
          0                 3           1             4    7     1       0.1179213048E-03       4    7    1         0.6541772274E-02      0.1609345180E-01
          0                 4           1             4    7     1      -0.4686319284E-05       4    7    1        -0.2672226481E-03      0.6574635096E-03

    ------------------------------------------------
       NWT REQUIRED            4 OUTER ITERATIONS 
       AND A TOTAL OF          6 INNER ITERATIONS.
    ------------------------------------------------

 NO OUTPUT CONTROL FOR STRESS PERIOD   14   TIME STEP    2
 
 SOLVING FOR HEAD 
                                                   Max.-Head-Change                         Max.-Flux-Residual
  Residual-Control   Outer-Iter.   Inner-Iter.     Column Row Layer    Maximum-Head-Change  Column Row Layer    Maximum-Flux-Residual          L2-NORM 
          0                 1           2             4    7     1       0.1764401263E-01       4    7    1         0.9261893320E+00      0.2281301601E+01
          0                 2           2             4    7     1      -0.1715357580E-02       4    7    1        -0.9256904859E-01      0.2280083718E+00
          0                 3           1             4    7     1       0.1167214740E-03       4    7    1         0.6474941145E-02      0.1594896080E-01
          0                 4           1             4    7     1      -0.4638636310E-05       4    7    1        -0.2644926728E-03      0.6515633426E-03

    ------------------------------------------------
       NWT REQUIRED            4 OUTER ITERATIONS 
       AND A TOTAL OF          6 INNER ITERATIONS.
    ------------------------------------------------

 NO OUTPUT CONTROL FOR STRESS PERIOD   14   TIME STEP    3
 
 SOLVING FOR HEAD 
                                                   Max.-Head-Change                         Max.-Flux-Residual
  Residual-Control   Outer-Iter.   Inner-Iter.     Column Row Layer    Maximum-Head-Change  Column Row Layer    Maximum-Flux-Residual          L2-NORM 
          0                 1           2             4    7     1       0.1746503086E-01       4    7    1         0.9167561177E+00      0.2260901426E+01
          0                 2           2             4    7     1      -0.1697956816E-02       4    7    1        -0.9162622836E-01      0.2259735763E+00
          0                 3           1             4    7     1       0.1155374381E-03       4    7    1         0.6408993386E-02      0.1580701744E-01
          0                 4           1             4    7     1      -0.4591581357E-05       4    7    1        -0.2617987789E-03      0.6457160617E-03

    ------------------------------------------------
       NWT REQUIRED            4 OUTER ITERATIONS 
       AND A TOTAL OF          6 INNER ITERATIONS.
    ------------------------------------------------

 NO OUTPUT CONTROL FOR STRESS PERIOD   14   TIME STEP    4
 
 SOLVING FOR HEAD 
                                                   Max.-Head-Change                         Max.-Flux-Residual
  Residual-Control   Outer-Iter.   Inner-Iter.     Column Row Layer    Maximum-Head-Change  Column Row Layer    Maximum-Flux-Residual          L2-NORM 
          0                 1           2             4    7     1       0.1728880078E-01       4    7    1         0.9074687688E+00      0.2240856061E+01
          0                 2           2             4    7     1      -0.1680823575E-02       4    7    1        -0.9069798705E-01      0.2239736773E+00
          0                 3           1             4    7     1       0.1143716063E-03       4    7    1         0.6344065408E-02      0.1566750597E-01
          0                 4           1             4    7     1      -0.4545249981E-05       4    7    1        -0.2591465434E-03      0.6401444561E-03

    ------------------------------------------------
       NWT REQUIRED            4 OUTER ITERATIONS 
       AND A TOTAL OF          6 INNER ITERATIONS.
    ------------------------------------------------

 NO OUTPUT CONTROL FOR STRESS PERIOD   14   TIME STEP    5
 
 SOLVING FOR HEAD 
                                                   Max.-Head-Change                         Max.-Flux-Residual
  Residual-Control   Outer-Iter.   Inner-Iter.     Column Row Layer    Maximum-Head-Change  Column Row Layer    Maximum-Flux-Residual          L2-NORM 
          0                 1           2             4    7     1       0.1711485324E-01       4    7    1         0.8983020199E+00      0.2221134948E+01
          0                 2           2             4    7     1      -0.1663912246E-02       4    7    1        -0.8978179948E-01      0.2220056244E+00
          0                 3           1             4    7     1       0.1132208741E-03       4    7    1         0.6279980548E-02      0.1553002833E-01
          0                 4           1             4    7     1      -0.4499518535E-05       4    7    1        -0.2565287432E-03      0.6345302329E-03

    ------------------------------------------------
       NWT REQUIRED            4 OUTER ITERATIONS 
       AND A TOTAL OF          6 INNER ITERATIONS.
    ------------------------------------------------

 NO OUTPUT CONTROL FOR STRESS PERIOD   14   TIME STEP    6
 
 SOLVING FOR HEAD 
                                                   Max.-Head-Change                         Max.-Flux-Residual
  Residual-Control   Outer-Iter.   Inner-Iter.     Column Row Layer    Maximum-Head-Change  Column Row Layer    Maximum-Flux-Residual          L2-NORM 
          0                 1           2             4    7     1       0.1694341689E-01       4    7    1         0.8892683304E+00      0.2201732043E+01
          0                 2           2             4    7     1      -0.1647245059E-02       4    7    1        -0.8887891086E-01      0.2200691585E+00
          0                 3           1             4    7     1       0.1120867548E-03       4    7    1         0.6216825919E-02      0.1539491712E-01
          0                 4           1             4    7     1      -0.4454447116E-05       4    7    1        -0.2539489444E-03      0.6289805653E-03

    ------------------------------------------------
       NWT REQUIRED            4 OUTER ITERATIONS 
       AND A TOTAL OF          6 INNER ITERATIONS.
    ------------------------------------------------

 NO OUTPUT CONTROL FOR STRESS PERIOD   14   TIME STEP    7
 
 SOLVING FOR HEAD 
                                                   Max.-Head-Change                         Max.-Flux-Residual
  Residual-Control   Outer-Iter.   Inner-Iter.     Column Row Layer    Maximum-Head-Change  Column Row Layer    Maximum-Flux-Residual          L2-NORM 
          0                 1           2             4    7     1       0.1677430351E-01       4    7    1         0.8803574854E+00      0.2182626244E+01
          0                 2           2             4    7     1      -0.1630803714E-02       4    7    1        -0.8798830027E-01      0.2181618099E+00
          0                 3           1             4    7     1       0.1109680031E-03       4    7    1         0.6154530125E-02      0.1526173441E-01
          0                 4           1             4    7     1      -0.4409986563E-05       4    7    1        -0.2514042289E-03      0.6236335039E-03

    ------------------------------------------------
       NWT REQUIRED            4 OUTER ITERATIONS 
       AND A TOTAL OF          6 INNER ITERATIONS.
    ------------------------------------------------

 NO OUTPUT CONTROL FOR STRESS PERIOD   14   TIME STEP    8
 
 SOLVING FOR HEAD 
                                                   Max.-Head-Change                         Max.-Flux-Residual
  Residual-Control   Outer-Iter.   Inner-Iter.     Column Row Layer    Maximum-Head-Change  Column Row Layer    Maximum-Flux-Residual          L2-NORM 
          0                 1           2             4    7     1       0.1660760003E-01       4    7    1         0.8715744392E+00      0.2163802891E+01
          0                 2           2             4    7     1      -0.1614596665E-02       4    7    1        -0.8711046293E-01      0.2162826867E+00
          0                 3           1             4    7     1       0.1098651943E-03       4    7    1         0.6093127775E-02      0.1513036548E-01
          0                 4           1             4    7     1      -0.4366160019E-05       4    7    1        -0.2488960297E-03      0.6182280837E-03

    ------------------------------------------------
       NWT REQUIRED            4 OUTER ITERATIONS 
       AND A TOTAL OF          6 INNER ITERATIONS.
    ------------------------------------------------

 NO OUTPUT CONTROL FOR STRESS PERIOD   14   TIME STEP    9
 
 SOLVING FOR HEAD 
                                                   Max.-Head-Change                         Max.-Flux-Residual
  Residual-Control   Outer-Iter.   Inner-Iter.     Column Row Layer    Maximum-Head-Change  Column Row Layer    Maximum-Flux-Residual          L2-NORM 
          0                 1           2             4    7     1       0.1644325913E-01       4    7    1         0.8629163433E+00      0.2145262028E+01
          0                 2           2             4    7     1      -0.1598619308E-02       4    7    1        -0.8624511406E-01      0.2144313954E+00
          0                 3           1             4    7     1       0.1087780146E-03       4    7    1         0.6032598954E-02      0.1500108244E-01
          0                 4           1             4    7     1      -0.4322954472E-05       4    7    1        -0.2464235001E-03      0.6129180229E-03

    ------------------------------------------------
       NWT REQUIRED            4 OUTER ITERATIONS 
       AND A TOTAL OF          6 INNER ITERATIONS.
    ------------------------------------------------

 NO OUTPUT CONTROL FOR STRESS PERIOD   14   TIME STEP   10
 
 SOLVING FOR HEAD 
                                                   Max.-Head-Change                         Max.-Flux-Residual
  Residual-Control   Outer-Iter.   Inner-Iter.     Column Row Layer    Maximum-Head-Change  Column Row Layer    Maximum-Flux-Residual          L2-NORM 
          0                 1           2             4    7     1       0.1628109506E-01       4    7    1         0.8543733848E+00      0.2126984017E+01
          0                 2           2             4    7     1      -0.1582853586E-02       4    7    1        -0.8539127290E-01      0.2126062828E+00
          0                 3           1             4    7     1       0.1077052352E-03       4    7    1         0.5972875072E-02      0.1487355479E-01
          0                 4           1             4    7     1      -0.4280320535E-05       4    7    1        -0.2439838258E-03      0.6077326479E-03

    ------------------------------------------------
       NWT REQUIRED            4 OUTER ITERATIONS 
       AND A TOTAL OF          6 INNER ITERATIONS.
    ------------------------------------------------

 NO OUTPUT CONTROL FOR STRESS PERIOD   14   TIME STEP   11
 
 SOLVING FOR HEAD 
                                                   Max.-Head-Change                         Max.-Flux-Residual
  Residual-Control   Outer-Iter.   Inner-Iter.     Column Row Layer    Maximum-Head-Change  Column Row Layer    Maximum-Flux-Residual          L2-NORM 
          0                 1           2             4    7     1       0.1612106858E-01       4    7    1         0.8459432915E+00      0.2108964436E+01
          0                 2           2             4    7     1      -0.1567295683E-02       4    7    1        -0.8454871235E-01      0.2108065783E+00
          0                 3           1             4    7     1       0.1066465975E-03       4    7    1         0.5913940233E-02      0.1474782450E-01
          0                 4           1             4    7     1      -0.4238249340E-05       4    7    1        -0.2415764197E-03      0.6026132615E-03

    ------------------------------------------------
       NWT REQUIRED            4 OUTER ITERATIONS 
       AND A TOTAL OF          6 INNER ITERATIONS.
    ------------------------------------------------

 NO OUTPUT CONTROL FOR STRESS PERIOD   14   TIME STEP   12
 
 SOLVING FOR HEAD 
                                                   Max.-Head-Change                         Max.-Flux-Residual
  Residual-Control   Outer-Iter.   Inner-Iter.     Column Row Layer    Maximum-Head-Change  Column Row Layer    Maximum-Flux-Residual          L2-NORM 
          0                 1           2             4    7     1       0.1596327540E-01       4    7    1         0.8376313868E+00      0.2091195092E+01
          0                 2           2             4    7     1      -0.1551954905E-02       4    7    1        -0.8371796450E-01      0.2090318414E+00
          0                 3           1             4    7     1       0.1056027338E-03       4    7    1         0.5855831661E-02      0.1462378625E-01
          0                 4           1             4    7     1      -0.4196765067E-05       4    7    1        -0.2392027577E-03      0.5975649782E-03

    ------------------------------------------------
       NWT REQUIRED            4 OUTER ITERATIONS 
       AND A TOTAL OF          6 INNER ITERATIONS.
    ------------------------------------------------

 NO OUTPUT CONTROL FOR STRESS PERIOD   14   TIME STEP   13
 
 SOLVING FOR HEAD 
                                                   Max.-Head-Change                         Max.-Flux-Residual
  Residual-Control   Outer-Iter.   Inner-Iter.     Column Row Layer    Maximum-Head-Change  Column Row Layer    Maximum-Flux-Residual          L2-NORM 
          0                 1           2             4    7     1       0.1580766852E-01       4    7    1         0.8294352755E+00      0.2073664637E+01
          0                 2           2             4    7     1      -0.1536826683E-02       4    7    1        -0.8289878989E-01      0.2072807589E+00
          0                 3           1             4    7     1       0.1045733336E-03       4    7    1         0.5798532630E-02      0.1450137851E-01
          0                 4           1             4    7     1      -0.4155855050E-05       4    7    1        -0.2368621529E-03      0.5925775343E-03

    ------------------------------------------------
       NWT REQUIRED            4 OUTER ITERATIONS 
       AND A TOTAL OF          6 INNER ITERATIONS.
    ------------------------------------------------

 NO OUTPUT CONTROL FOR STRESS PERIOD   14   TIME STEP   14
 
 SOLVING FOR HEAD 
                                                   Max.-Head-Change                         Max.-Flux-Residual
  Residual-Control   Outer-Iter.   Inner-Iter.     Column Row Layer    Maximum-Head-Change  Column Row Layer    Maximum-Flux-Residual          L2-NORM 
          0                 1           2             4    7     1       0.1565407323E-01       4    7    1         0.8213451607E+00      0.2056383847E+01
          0                 2           2             4    7     1      -0.1521894030E-02       4    7    1        -0.8209020940E-01      0.2055545319E+00
          0                 3           1             4    7     1       0.1035572408E-03       4    7    1         0.5741974598E-02      0.1438074536E-01
          0                 4           1             4    7     1      -0.4115474735E-05       4    7    1        -0.2345518330E-03      0.5876668932E-03

    ------------------------------------------------
       NWT REQUIRED            4 OUTER ITERATIONS 
       AND A TOTAL OF          6 INNER ITERATIONS.
    ------------------------------------------------

 NO OUTPUT CONTROL FOR STRESS PERIOD   14   TIME STEP   15
 
 SOLVING FOR HEAD 
                                                   Max.-Head-Change                         Max.-Flux-Residual
  Residual-Control   Outer-Iter.   Inner-Iter.     Column Row Layer    Maximum-Head-Change  Column Row Layer    Maximum-Flux-Residual          L2-NORM 
          0                 1           2             4    7     1       0.1550271960E-01       4    7    1         0.8133740632E+00      0.2039327487E+01
          0                 2           2             4    7     1      -0.1507179313E-02       4    7    1        -0.8129352439E-01      0.2038506536E+00
          0                 3           1             4    7     1       0.1025559775E-03       4    7    1         0.5686248655E-02      0.1426165347E-01
          0                 4           1             4    7     1      -0.4075683182E-05       4    7    1        -0.2322754763E-03      0.5827462995E-03

    ------------------------------------------------
       NWT REQUIRED            4 OUTER ITERATIONS 
       AND A TOTAL OF          6 INNER ITERATIONS.
    ------------------------------------------------

 NO OUTPUT CONTROL FOR STRESS PERIOD   14   TIME STEP   16
 
 SOLVING FOR HEAD 
                                                   Max.-Head-Change                         Max.-Flux-Residual
  Residual-Control   Outer-Iter.   Inner-Iter.     Column Row Layer    Maximum-Head-Change  Column Row Layer    Maximum-Flux-Residual          L2-NORM 
          0                 1           2             4    7     1       0.1535329018E-01       4    7    1         0.8055044722E+00      0.2022480688E+01
          0                 2           2             4    7     1      -0.1492676011E-02       4    7    1        -0.8050698469E-01      0.2021998853E+00
          0                 3           1             4    7     1       0.1015690996E-03       4    7    1         0.5631232287E-02      0.1414620906E-01
          0                 4           1             4    7     1      -0.4036463699E-05       4    7    1        -0.2300281246E-03      0.5780366039E-03

    ------------------------------------------------
       NWT REQUIRED            4 OUTER ITERATIONS 
       AND A TOTAL OF          6 INNER ITERATIONS.
    ------------------------------------------------

 NO OUTPUT CONTROL FOR STRESS PERIOD   14   TIME STEP   17
 
 SOLVING FOR HEAD 
                                                   Max.-Head-Change                         Max.-Flux-Residual
  Residual-Control   Outer-Iter.   Inner-Iter.     Column Row Layer    Maximum-Head-Change  Column Row Layer    Maximum-Flux-Residual          L2-NORM 
          0                 1           2             4    7     1       0.1520564790E-01       4    7    1         0.7977333512E+00      0.2005838443E+01
          0                 2           2             4    7     1      -0.1478297797E-02       4    7    1        -0.7973028723E-01      0.2005048843E+00
          0                 3           1             4    7     1       0.1005907349E-03       4    7    1         0.5576904484E-02      0.1402766589E-01
          0                 4           1             4    7     1      -0.3997582345E-05       4    7    1        -0.2278088982E-03      0.5732282001E-03

    ------------------------------------------------
       NWT REQUIRED            4 OUTER ITERATIONS 
       AND A TOTAL OF          6 INNER ITERATIONS.
    ------------------------------------------------

 NO OUTPUT CONTROL FOR STRESS PERIOD   14   TIME STEP   18
 
 SOLVING FOR HEAD 
                                                   Max.-Head-Change                         Max.-Flux-Residual
  Residual-Control   Outer-Iter.   Inner-Iter.     Column Row Layer    Maximum-Head-Change  Column Row Layer    Maximum-Flux-Residual          L2-NORM 
          0                 1           2             4    7     1       0.1506011365E-01       4    7    1         0.7900722043E+00      0.1989378656E+01
          0                 2           2             4    7     1      -0.1464148852E-02       4    7    1        -0.7896458126E-01      0.1988602814E+00
          0                 3           1             4    7     1       0.9962796981E-04       4    7    1         0.5523345422E-02      0.1391273469E-01

    ------------------------------------------------
       NWT REQUIRED            3 OUTER ITERATIONS 
       AND A TOTAL OF          5 INNER ITERATIONS.
    ------------------------------------------------

 NO OUTPUT CONTROL FOR STRESS PERIOD   14   TIME STEP   19
 
 SOLVING FOR HEAD 
                                                   Max.-Head-Change                         Max.-Flux-Residual
  Residual-Control   Outer-Iter.   Inner-Iter.     Column Row Layer    Maximum-Head-Change  Column Row Layer    Maximum-Flux-Residual          L2-NORM 
          0                 1           2             4    7     1       0.1491630275E-01       4    7    1         0.7825016748E+00      0.1973125884E+01
          0                 2           2             4    7     1      -0.1450167454E-02       4    7    1        -0.7820793222E-01      0.1972363248E+00
          0                 3           1             4    7     1       0.9867660586E-04       4    7    1         0.5470419921E-02      0.1379916104E-01

    ------------------------------------------------
       NWT REQUIRED            3 OUTER ITERATIONS 
       AND A TOTAL OF          5 INNER ITERATIONS.
    ------------------------------------------------

 NO OUTPUT CONTROL FOR STRESS PERIOD   14   TIME STEP   20
 
 SOLVING FOR HEAD 
                                                   Max.-Head-Change                         Max.-Flux-Residual
  Residual-Control   Outer-Iter.   Inner-Iter.     Column Row Layer    Maximum-Head-Change  Column Row Layer    Maximum-Flux-Residual          L2-NORM 
          0                 1           2             4    7     1       0.1477437793E-01       4    7    1         0.7750305550E+00      0.1957083423E+01
          0                 2           2             4    7     1      -0.1436369423E-02       4    7    1        -0.7746121893E-01      0.1956332990E+00
          0                 3           1             4    7     1       0.9773771849E-04       4    7    1         0.5418189356E-02      0.1368708239E-01

    ------------------------------------------------
       NWT REQUIRED            3 OUTER ITERATIONS 
       AND A TOTAL OF          5 INNER ITERATIONS.
    ------------------------------------------------

 NO OUTPUT CONTROL FOR STRESS PERIOD   14   TIME STEP   21
 
 SOLVING FOR HEAD 
                                                   Max.-Head-Change                         Max.-Flux-Residual
  Residual-Control   Outer-Iter.   Inner-Iter.     Column Row Layer    Maximum-Head-Change  Column Row Layer    Maximum-Flux-Residual          L2-NORM 
          0                 1           2             4    7     1       0.1463443851E-01       4    7    1         0.7676645865E+00      0.1941238934E+01
          0                 2           2             4    7     1      -0.1422764415E-02       4    7    1        -0.7672501524E-01      0.1940501008E+00
          0                 3           1             4    7     1       0.9681196590E-04       4    7    1         0.5366693938E-02      0.1357640693E-01

    ------------------------------------------------
       NWT REQUIRED            3 OUTER ITERATIONS 
       AND A TOTAL OF          5 INNER ITERATIONS.
    ------------------------------------------------

 NO OUTPUT CONTROL FOR STRESS PERIOD   14   TIME STEP   22
 
 SOLVING FOR HEAD 
                                                   Max.-Head-Change                         Max.-Flux-Residual
  Residual-Control   Outer-Iter.   Inner-Iter.     Column Row Layer    Maximum-Head-Change  Column Row Layer    Maximum-Flux-Residual          L2-NORM 
          0                 1           2             4    7     1       0.1449618179E-01       4    7    1         0.7603868347E+00      0.1925595716E+01
          0                 2           2             4    7     1      -0.1409322998E-02       4    7    1        -0.7599762853E-01      0.1924868693E+00
          0                 3           1             4    7     1       0.9589734453E-04       4    7    1         0.5315815219E-02      0.1346702728E-01

    ------------------------------------------------
       NWT REQUIRED            3 OUTER ITERATIONS 
       AND A TOTAL OF          5 INNER ITERATIONS.
    ------------------------------------------------

 NO OUTPUT CONTROL FOR STRESS PERIOD   14   TIME STEP   23
 
 SOLVING FOR HEAD 
                                                   Max.-Head-Change                         Max.-Flux-Residual
  Residual-Control   Outer-Iter.   Inner-Iter.     Column Row Layer    Maximum-Head-Change  Column Row Layer    Maximum-Flux-Residual          L2-NORM 
          0                 1           2             4    7     1       0.1435971792E-01       4    7    1         0.7532036888E+00      0.1910150585E+01
          0                 2           2             4    7     1      -0.1396055886E-02       4    7    1        -0.7527969743E-01      0.1909434372E+00
          0                 3           1             4    7     1       0.9499458321E-04       4    7    1         0.5265597897E-02      0.1335896571E-01

    ------------------------------------------------
       NWT REQUIRED            3 OUTER ITERATIONS 
       AND A TOTAL OF          5 INNER ITERATIONS.
    ------------------------------------------------

 NO OUTPUT CONTROL FOR STRESS PERIOD   14   TIME STEP   24
 
 SOLVING FOR HEAD 
                                                   Max.-Head-Change                         Max.-Flux-Residual
  Residual-Control   Outer-Iter.   Inner-Iter.     Column Row Layer    Maximum-Head-Change  Column Row Layer    Maximum-Flux-Residual          L2-NORM 
          0                 1           2             4    7     1       0.1422488003E-01       4    7    1         0.7461061373E+00      0.1894897149E+01
          0                 2           2             4    7     1      -0.1382946854E-02       4    7    1        -0.7457032125E-01      0.1894191467E+00
          0                 3           1             4    7     1       0.9410257880E-04       4    7    1         0.5215978979E-02      0.1325253815E-01

    ------------------------------------------------
       NWT REQUIRED            3 OUTER ITERATIONS 
       AND A TOTAL OF          5 INNER ITERATIONS.
    ------------------------------------------------

 NO OUTPUT CONTROL FOR STRESS PERIOD   14   TIME STEP   25
 
 SOLVING FOR HEAD 
                                                   Max.-Head-Change                         Max.-Flux-Residual
  Residual-Control   Outer-Iter.   Inner-Iter.     Column Row Layer    Maximum-Head-Change  Column Row Layer    Maximum-Flux-Residual          L2-NORM 
          0                 1           2             4    7     1       0.1409191852E-01       4    7    1         0.7391076138E+00      0.1879835243E+01
          0                 2           2             4    7     1      -0.1370020245E-02       4    7    1        -0.7387084264E-01      0.1879139088E+00
          0                 3           1             4    7     1       0.9322298768E-04       4    7    1         0.5167052356E-02      0.1314723558E-01

    ------------------------------------------------
       NWT REQUIRED            3 OUTER ITERATIONS 
       AND A TOTAL OF          5 INNER ITERATIONS.
    ------------------------------------------------

 NO OUTPUT CONTROL FOR STRESS PERIOD   14   TIME STEP   26
 
 SOLVING FOR HEAD 
                                                   Max.-Head-Change                         Max.-Flux-Residual
  Residual-Control   Outer-Iter.   Inner-Iter.     Column Row Layer    Maximum-Head-Change  Column Row Layer    Maximum-Flux-Residual          L2-NORM 
          0                 1           2             4    7     1       0.1396065617E-01       4    7    1         0.7321990150E+00      0.1864942089E+01
          0                 2           2             4    7     1      -0.1357258831E-02       4    7    1        -0.7318035179E-01      0.1864255721E+00
          0                 3           1             4    7     1       0.9235463688E-04       4    7    1         0.5118754411E-02      0.1304316215E-01

    ------------------------------------------------
       NWT REQUIRED            3 OUTER ITERATIONS 
       AND A TOTAL OF          5 INNER ITERATIONS.
    ------------------------------------------------

 NO OUTPUT CONTROL FOR STRESS PERIOD   14   TIME STEP   27
 
 SOLVING FOR HEAD 
                                                   Max.-Head-Change                         Max.-Flux-Residual
  Residual-Control   Outer-Iter.   Inner-Iter.     Column Row Layer    Maximum-Head-Change  Column Row Layer    Maximum-Flux-Residual          L2-NORM 
          0                 1           2             4    7     1       0.1383107062E-01       4    7    1         0.7253785148E+00      0.1850246286E+01
          0                 2           2             4    7     1      -0.1344660437E-02       4    7    1        -0.7249866611E-01      0.1849569050E+00
          0                 3           1             4    7     1       0.9149737907E-04       4    7    1         0.5071072365E-02      0.1294045914E-01

    ------------------------------------------------
       NWT REQUIRED            3 OUTER ITERATIONS 
       AND A TOTAL OF          5 INNER ITERATIONS.
    ------------------------------------------------

 NO OUTPUT CONTROL FOR STRESS PERIOD   14   TIME STEP   28
 
 SOLVING FOR HEAD 
                                                   Max.-Head-Change                         Max.-Flux-Residual
  Residual-Control   Outer-Iter.   Inner-Iter.     Column Row Layer    Maximum-Head-Change  Column Row Layer    Maximum-Flux-Residual          L2-NORM 
          0                 1           2             4    7     1       0.1370313514E-01       4    7    1         0.7186449536E+00      0.1835723549E+01
          0                 2           2             4    7     1      -0.1332222463E-02       4    7    1        -0.7182566975E-01      0.1835055016E+00
          0                 3           1             4    7     1       0.9065103710E-04       4    7    1         0.5023998118E-02      0.1283894364E-01

    ------------------------------------------------
       NWT REQUIRED            3 OUTER ITERATIONS 
       AND A TOTAL OF          5 INNER ITERATIONS.
    ------------------------------------------------

 NO OUTPUT CONTROL FOR STRESS PERIOD   14   TIME STEP   29
 
 SOLVING FOR HEAD 
                                                   Max.-Head-Change                         Max.-Flux-Residual
  Residual-Control   Outer-Iter.   Inner-Iter.     Column Row Layer    Maximum-Head-Change  Column Row Layer    Maximum-Flux-Residual          L2-NORM 
          0                 1           2             4    7     1       0.1357695511E-01       4    7    1         0.7120043082E+00      0.1821373597E+01
          0                 2           2             4    7     1      -0.1319955158E-02       4    7    1        -0.7116196006E-01      0.1820713217E+00
          0                 3           1             4    7     1       0.8981630799E-04       4    7    1         0.4977573431E-02      0.1273860322E-01

    ------------------------------------------------
       NWT REQUIRED            3 OUTER ITERATIONS 
       AND A TOTAL OF          5 INNER ITERATIONS.
    ------------------------------------------------

 NO OUTPUT CONTROL FOR STRESS PERIOD   14   TIME STEP   30



 STREAM LISTING     PERIOD     14   STEP       30

 LAYER ROW COL. STREAM  RCH.  FLOW INTO     FLOW TO   FLOW OUT OF   OVRLND.     DIRECT     STREAM       STREAM     STREAM     STREAM   STREAMBED  STREAMBED
                SEG.NO.  NO.  STRM. RCH.    AQUIFER    STRM. RCH.    RUNOFF     PRECIP       ET          HEAD       DEPTH      WIDTH   CONDCTNC.   GRADIENT

   1    1    1     1     1    1.9000E+01  2.1427E-01   1.8786E+01  0.000E+00  0.000E+00  0.000E+00  1.09413E+03  1.082E+00  1.166E+01  5.249E-02  1.361E+00
   1    2    2     1     2    1.8786E+01  3.3055E-01   1.8455E+01  0.000E+00  0.000E+00  0.000E+00  1.08914E+03  1.077E+00  1.158E+01  8.107E-02  1.359E+00
   1    3    3     1     3    1.8455E+01  2.8065E-01   1.8175E+01  0.000E+00  0.000E+00  0.000E+00  1.08349E+03  1.072E+00  1.149E+01  6.892E-02  1.357E+00
   1    3    4     1     4    1.8175E+01  2.5740E-01   1.7917E+01  0.000E+00  0.000E+00  0.000E+00  1.07848E+03  1.068E+00  1.140E+01  6.328E-02  1.356E+00
   1    4    5     2     1    1.5917E+01  3.0543E-01   1.5612E+01  0.000E+00  0.000E+00  0.000E+00  1.07285E+03  9.157E-01  1.200E+01  7.800E-02  1.305E+00
   1    5    6     2     2    1.5612E+01  2.3438E-01   1.5378E+01  0.000E+00  0.000E+00  0.000E+00  1.06742E+03  9.063E-01  1.200E+01  6.000E-02  1.302E+00
   1    6    6     2     3    1.5378E+01  2.3388E-01   1.5144E+01  0.000E+00  0.000E+00  0.000E+00  1.06269E+03  8.980E-01  1.200E+01  6.000E-02  1.299E+00
   1    7    6     2     4    1.5144E+01  2.3339E-01   1.4910E+01  0.000E+00  0.000E+00  0.000E+00  1.05797E+03  8.898E-01  1.200E+01  6.000E-02  1.297E+00
   1    8    6     2     5    1.4910E+01  2.3289E-01   1.4677E+01  0.000E+00  0.000E+00  0.000E+00  1.05324E+03  8.814E-01  1.200E+01  6.000E-02  1.294E+00
   1    3    5     3     1    2.0000E+00  2.8252E-01   1.7175E+00  0.000E+00  0.000E+00  0.000E+00  1.07555E+03  1.909E+00  9.636E+00  7.227E-02  1.955E+00
   1    3    6     3     2    1.7175E+00  2.4905E-01   1.4684E+00  0.000E+00  0.000E+00  0.000E+00  1.07264E+03  1.727E+00  8.909E+00  6.682E-02  1.864E+00
   1    3    7     3     3    1.4684E+00  1.9718E-01   1.2712E+00  0.000E+00  0.000E+00  0.000E+00  1.06987E+03  1.555E+00  8.218E+00  5.547E-02  1.777E+00
   1    4    8     3     4    1.2712E+00  2.2567E-01   1.0456E+00  0.000E+00  0.000E+00  0.000E+00  1.06682E+03  1.364E+00  7.455E+00  6.709E-02  1.682E+00
   1    5    8     3     5    1.0456E+00  1.5790E-01   8.8768E-01  0.000E+00  0.000E+00  0.000E+00  1.06362E+03  1.164E+00  6.655E+00  4.991E-02  1.582E+00
   1    6    8     3     6    8.8768E-01  5.5980E-02   8.3170E-01  0.000E+00  0.000E+00  0.000E+00  1.06158E+03  1.036E+00  6.145E+00  1.844E-02  1.518E+00
   1    5   10     4     1    1.0000E+01  9.0919E-02   9.9091E+00  0.000E+00  0.000E+00  0.000E+00  1.07836E+03  6.368E-01  1.000E+01  2.500E-02  1.212E+00
   1    5    9     4     2    9.9091E+00  1.8158E-01   9.7275E+00  0.000E+00  0.000E+00  0.000E+00  1.07154E+03  6.315E-01  1.000E+01  5.000E-02  1.211E+00
   1    6    8     4     3    9.7275E+00  1.2689E-01   9.6006E+00  0.000E+00  0.000E+00  0.000E+00  1.06381E+03  6.256E-01  1.000E+01  3.500E-02  1.209E+00
   1    6    8     5     1    1.0432E+01  2.2686E-01   1.0205E+01  0.000E+00  0.000E+00  0.000E+00  1.05868E+03  6.790E-01  1.542E+01  6.166E-02  1.226E+00
   1    7    7     5     2    1.0205E+01  2.7894E-01   9.9265E+00  0.000E+00  0.000E+00  0.000E+00  1.05417E+03  6.732E-01  1.519E+01  7.594E-02  1.224E+00
   1    8    7     5     3    9.9265E+00  1.9221E-01   9.7343E+00  0.000E+00  0.000E+00  0.000E+00  1.04992E+03  6.676E-01  1.497E+01  5.241E-02  1.223E+00
   1    8    6     5     4    9.7343E+00  1.3577E-01   9.5985E+00  0.000E+00  0.000E+00  0.000E+00  1.04691E+03  6.637E-01  1.482E+01  3.706E-02  1.221E+00
   1    9    6     6     1    2.4276E+01  2.5176E-01   2.4024E+01  0.000E+00  0.000E+00  0.000E+00  1.04392E+03  1.196E+00  1.200E+01  6.000E-02  1.399E+00
   1   10    7     6     2    2.4024E+01  2.5131E-01   2.3773E+01  0.000E+00  0.000E+00  0.000E+00  1.03937E+03  1.188E+00  1.200E+01  6.000E-02  1.396E+00
   1   11    7     6     3    2.3773E+01  2.5086E-01   2.3522E+01  0.000E+00  0.000E+00  0.000E+00  1.03482E+03  1.181E+00  1.200E+01  6.000E-02  1.394E+00
   1   12    7     6     4    2.3522E+01  2.5041E-01   2.3272E+01  0.000E+00  0.000E+00  0.000E+00  1.03026E+03  1.173E+00  1.200E+01  6.000E-02  1.391E+00
   1   13    7     6     5    2.3272E+01 -1.3638E-02   2.3285E+01  0.000E+00  0.000E+00  0.000E+00  1.02708E+03  1.170E+00  1.200E+01  2.400E-01 -1.894E-02
   1   14    9     7     1    1.5000E+02  1.3295E+00   1.4867E+02  0.000E+00  0.000E+00  0.000E+00  1.03987E+03  2.288E+00  5.529E+01  5.593E-01  7.923E-01
   1   13    8     7     2    1.4867E+02  1.8067E+00   1.4686E+02  0.000E+00  0.000E+00  0.000E+00  1.03478E+03  2.279E+00  5.526E+01  6.148E-01  9.796E-01
   1   13    7     7     3    1.4686E+02  1.4265E+00   1.4544E+02  0.000E+00  0.000E+00  0.000E+00  1.02969E+03  2.271E+00  5.522E+01  5.585E-01  8.514E-01
   1   13    6     8     1    1.6872E+02  8.7786E-01   1.6784E+02  0.000E+00  0.000E+00  0.000E+00  1.02482E+03  2.941E+00  4.264E+01  4.346E-01  6.734E-01
   1   13    5     8     2    1.6784E+02  1.4516E-01   1.6770E+02  0.000E+00  0.000E+00  0.000E+00  1.01856E+03  2.938E+00  4.260E+01  4.341E-01  1.115E-01
   1   13    4     8     3    1.6770E+02 -2.5170E+00   1.7022E+02  0.000E+00  0.000E+00  0.000E+00  1.01232E+03  2.945E+00  4.271E+01  4.352E+00 -1.928E-01
   1   13    3     8     4    1.7022E+02 -3.7047E+00   1.7392E+02  0.000E+00  0.000E+00  0.000E+00  1.00609E+03  2.966E+00  4.300E+01  4.382E+00 -2.818E-01
   1   13    2     8     5    1.7392E+02 -2.6045E+00   1.7653E+02  0.000E+00  0.000E+00  0.000E+00  9.99861E+02  2.986E+00  4.330E+01  4.412E+00 -1.968E-01
   1   13    1     8     6    1.7653E+02 -2.0003E+00   1.7853E+02  0.000E+00  0.000E+00  0.000E+00  9.94876E+02  3.001E+00  4.351E+01  2.660E+00 -2.506E-01





UNSATURATED ZONE PACKAGE VOLUMETRIC BUDGET FOR  TIME STEP    30 STRESS PERIOD   14
  ------------------------------------------------------------------------------



     CUMULATIVE VOLUMES      L**3       RATES FOR THIS TIME STEP      L**3/T
     ------------------                 ------------------------

           IN:                                      IN:
           ---                                      ---
        INFILTRATION =   464091741.9692          INFILTRATION =           0.8475

          OUT:                                     OUT:
          ----                                     ----
              UZF ET =   425321757.1039                UZF ET =           0.7500
        UZF RECHARGE =    37930174.9265          UZF RECHARGE =           0.0002

            IN - OUT =      839809.9388              IN - OUT =       9.7329E-02

          STORAGE:                                 STORAGE:
          --------                                 --------
      STORAGE CHANGE =      839811.9297        STORAGE CHANGE =       9.7329E-02

 PERCENT DISCREPANCY IS DIFFERENCE BETWEEN IN-OUT MINUS CHANGE IN STORAGE
 DIVIDED BY THE AVERAGE OF IN AND OUT TIMES 100

 PERCENT DISCREPANCY =           0.00     PERCENT DISCREPANCY =           0.00






1
  VOLUMETRIC BUDGET FOR AGRICULTURAL FIELDS AT  END OF TIME STEP   30, STRESS PERIOD  14
  ------------------------------------------------------------------------------

     CUMULATIVE VOLUMES      L**3       RATES FOR THIS TIME STEP      L**3/T
     ------------------                 ------------------------

           IN:                                      IN:
           ---                                      ---
               AG WELLS  =   435042048.0000                 AG WELLS  =           0.0000
      DIVERSION SEGMENTS =           0.0000        DIVERSION SEGMENTS =           0.0000
           GW IRRIGATION =           0.0000             GW IRRIGATION =           0.0000
           SW IRRIGATION =           0.0000             SW IRRIGATION =           0.0000
        SYSTEM LOSSES GW =           0.0000          SYSTEM LOSSES GW =           0.0000
        SYSTEM LOSSES SW =           0.0000          SYSTEM LOSSES SW =           0.0000

                TOTAL IN =   435042048.0000                  TOTAL IN =           0.0000

          OUT:                                     OUT:
          ----                                     ----
               AG WELLS  =           0.0000                 AG WELLS  =           0.0000
      DIVERSION SEGMENTS =           0.0000        DIVERSION SEGMENTS =           0.0000
           GW IRRIGATION =   435042048.0000             GW IRRIGATION =           0.0000
           SW IRRIGATION =           0.0000             SW IRRIGATION =           0.0000
        SYSTEM LOSSES GW =           0.0000          SYSTEM LOSSES GW =           0.0000
        SYSTEM LOSSES SW =           0.0000          SYSTEM LOSSES SW =           0.0000

               TOTAL OUT =   435042048.0000                 TOTAL OUT =           0.0000

                IN - OUT =           0.0000                  IN - OUT =           0.0000

     PERCENT DISCREPANCY =           0.00         PERCENT DISCREPANCY =           0.00



1
  VOLUMETRIC BUDGET FOR ENTIRE MODEL AT END OF TIME STEP   30, STRESS PERIOD  14
  ------------------------------------------------------------------------------

     CUMULATIVE VOLUMES      L**3       RATES FOR THIS TIME STEP      L**3/T
     ------------------                 ------------------------

           IN:                                      IN:
           ---                                      ---
             STORAGE     =   576465088.0000               STORAGE     =           5.7910
       CONSTANT HEAD     =           0.0000         CONSTANT HEAD     =           0.0000
     HEAD DEP BOUNDS     =     9783327.0000       HEAD DEP BOUNDS     =           0.2853
      STREAM LEAKAGE     =   424170304.0000        STREAM LEAKAGE     =          11.3143
        UZF RECHARGE     =    37930180.0000          UZF RECHARGE     =       1.7130E-04
               GW ET     =           0.0000                 GW ET     =           0.0000
     SURFACE LEAKAGE     =           0.0000       SURFACE LEAKAGE     =           0.0000
           AG WELLS      =           0.0000             AG WELLS      =           0.0000

                TOTAL IN =  1048348864.0000                  TOTAL IN =          17.3908

          OUT:                                     OUT:
          ----                                     ----
             STORAGE     =   232041184.0000               STORAGE     =           6.2609
       CONSTANT HEAD     =           0.0000         CONSTANT HEAD     =           0.0000
     HEAD DEP BOUNDS     =    10088085.0000       HEAD DEP BOUNDS     =           0.2898
      STREAM LEAKAGE     =   357418944.0000        STREAM LEAKAGE     =          10.8402
        UZF RECHARGE     =           0.0000          UZF RECHARGE     =           0.0000
               GW ET     =    13758094.0000                 GW ET     =           0.0000
     SURFACE LEAKAGE     =           0.0000       SURFACE LEAKAGE     =           0.0000
           AG WELLS      =   435042048.0000             AG WELLS      =           0.0000

               TOTAL OUT =  1048348352.0000                 TOTAL OUT =          17.3910

                IN - OUT =         512.0000                  IN - OUT =      -1.2970E-04

     PERCENT DISCREPANCY =           0.00         PERCENT DISCREPANCY =          -0.00






         TIME SUMMARY AT END OF TIME STEP   30 IN STRESS PERIOD   14
                    SECONDS     MINUTES      HOURS       DAYS        YEARS
                    -----------------------------------------------------------
   TIME STEP LENGTH  87667.      1461.1      24.352      1.0147     2.77799E-03
 STRESS PERIOD TIME 2.63000E+06  43833.      730.56      30.440     8.33397E-02
         TOTAL TIME 3.42763E+07 5.71272E+05  9521.2      396.72      1.0862    
1
1
                            STRESS PERIOD NO.   15, LENGTH =   2630000.    
                            -----------------------------------------------

                              NUMBER OF TIME STEPS =    30

                               MULTIPLIER FOR DELT =     1.000

                            INITIAL TIME STEP SIZE =   87666.66    

 REUSING NON-PARAMETER GHB CELLS FROM LAST STRESS PERIOD

      2 GHB CELLS

 REUSING STREAM SEGMENT DATA FROM LAST STRESS PERIOD



            AREAL INFILTRATION RATE
 READING ON UNIT   19 WITH FORMAT: (FREE)              

            1           2           3           4           5           6           7           8           9          10
 ........................................................................................................................
   1   1.0000E-10  2.0000E-10   0.000       0.000       0.000       0.000       0.000       0.000       0.000       0.000    
   2   2.0000E-10  1.0000E-10  2.0000E-10   0.000       0.000      8.0000E-10  8.0000E-10  5.0000E-10   0.000       0.000    
   3    0.000      5.0000E-10  1.0000E-10  1.0000E-10  8.0000E-10  8.0000E-10  5.0000E-10  5.0000E-10   0.000       0.000    
   4   8.0000E-10  5.0000E-10  1.0000E-10  1.0000E-10  1.0000E-10  1.0000E-10  1.0000E-10  1.0000E-10  2.0000E-10   0.000    
   5   8.0000E-10  5.0000E-10  1.0000E-10  1.0000E-10  1.0000E-10  1.0000E-10  1.0000E-10  1.0000E-10  1.0000E-10  1.0000E-10
   6   8.0000E-10  5.0000E-10  5.0000E-10  2.0000E-10  2.0000E-10  1.0000E-10  1.0000E-10  1.0000E-10  1.0000E-10  5.0000E-10
   7   8.0000E-10  5.0000E-10  5.0000E-10  2.0000E-10  2.0000E-10  1.0000E-10  1.0000E-10  2.0000E-10  2.0000E-10   0.000    
   8    0.000      5.0000E-10  5.0000E-10  2.0000E-10  2.0000E-10  1.0000E-10  1.0000E-10  2.0000E-10  5.0000E-10   0.000    
   9    0.000      5.0000E-10  5.0000E-10  2.0000E-10  2.0000E-10  1.0000E-10  1.0000E-10  2.0000E-10  5.0000E-10   0.000    
  10    0.000      5.0000E-10  5.0000E-10  2.0000E-10  2.0000E-10  1.0000E-10  1.0000E-10  2.0000E-10  5.0000E-10  8.0000E-10
  11    0.000      1.0000E-10  1.0000E-10  1.0000E-10  1.0000E-10  1.0000E-10  1.0000E-10  2.0000E-10  5.0000E-10   0.000    
  12   1.0000E-10  1.0000E-10  1.0000E-10  1.0000E-10  1.0000E-10  1.0000E-10  1.0000E-10  1.0000E-10  2.0000E-10   0.000    
  13   1.0000E-10  1.0000E-10  2.0000E-10  2.0000E-10  2.0000E-10  2.0000E-10  2.0000E-10  1.0000E-10  1.0000E-10   0.000    
  14    0.000      2.0000E-10  5.0000E-10  5.0000E-10  5.0000E-10  5.0000E-10  5.0000E-10  2.0000E-10  1.0000E-10   0.000    
  15    0.000       0.000      8.0000E-10  8.0000E-10  8.0000E-10  8.0000E-10   0.000       0.000       0.000       0.000    

                  ET RATE =  5.000000E-10

 USING ET EXTINCTION DEPTH FROM PREVIOUS STRESS PERIOD. CURRENT PERIOD IS:      15

 USING EXTINCTION WATER CONTENT FROM PREVIOUS STRESS PERIOD. CURRENT PERIOD IS:      15

 USING AIR ENTRY PRESSURE FROM PREVIOUS STRESS PERIOD. CURRENT PERIOD IS:      15

 USING ROOT PRESSURE HEAD FROM PREVIOUS STRESS PERIOD. CURRENT PERIOD IS:      15

 USING ROOT ACTIVITY FROM PREVIOUS STRESS PERIOD. CURRENT PERIOD IS:      15

 PROCESSING AG STRESS PERIOD DATA

 READING AG STRESS PERIOD DATA

 READING IRRIGATION WELL

 END PROCESSING AG STRESS PERIOD DATA OPTIONS
 
 SOLVING FOR HEAD 
                                                   Max.-Head-Change                         Max.-Flux-Residual
  Residual-Control   Outer-Iter.   Inner-Iter.     Column Row Layer    Maximum-Head-Change  Column Row Layer    Maximum-Flux-Residual          L2-NORM 
          0                 1           2             4    7     1       0.1345222671E-01       4    7    1         0.7054399543E+00      0.1807197746E+01
          0                 2           2             4    7     1      -0.1307828981E-02       4    7    1        -0.7050587554E-01      0.1806545463E+00
          0                 3           1             4    7     1       0.8899118213E-04       4    7    1         0.4931682117E-02      0.1263949483E-01

    ------------------------------------------------
       NWT REQUIRED            3 OUTER ITERATIONS 
       AND A TOTAL OF          5 INNER ITERATIONS.
    ------------------------------------------------

 NO OUTPUT CONTROL FOR STRESS PERIOD   15   TIME STEP    1
 
 SOLVING FOR HEAD 
                                                   Max.-Head-Change                         Max.-Flux-Residual
  Residual-Control   Outer-Iter.   Inner-Iter.     Column Row Layer    Maximum-Head-Change  Column Row Layer    Maximum-Flux-Residual          L2-NORM 
          0                 1           2             4    7     1       0.1332907459E-01       4    7    1         0.6989582273E+00      0.1790502895E+01
          0                 2           2             4    7     1      -0.1297279074E-02       4    7    1        -0.6995258332E-01      0.1790152977E+00
          0                 3           1             4    7     1       0.8827335032E-04       4    7    1         0.4892981633E-02      0.1252523579E-01

    ------------------------------------------------
       NWT REQUIRED            3 OUTER ITERATIONS 
       AND A TOTAL OF          5 INNER ITERATIONS.
    ------------------------------------------------

 NO OUTPUT CONTROL FOR STRESS PERIOD   15   TIME STEP    2
 
 SOLVING FOR HEAD 
                                                   Max.-Head-Change                         Max.-Flux-Residual
  Residual-Control   Outer-Iter.   Inner-Iter.     Column Row Layer    Maximum-Head-Change  Column Row Layer    Maximum-Flux-Residual          L2-NORM 
          0                 1           2             4    7     1       0.1320376416E-01       4    7    1         0.6924896885E+00      0.1775594726E+01
          0                 2           2             4    7     1      -0.1283673852E-02       4    7    1        -0.6921156114E-01      0.1774871814E+00
          0                 3           1             4    7     1       0.8734757927E-04       4    7    1         0.4841148919E-02      0.1241830957E-01

    ------------------------------------------------
       NWT REQUIRED            3 OUTER ITERATIONS 
       AND A TOTAL OF          5 INNER ITERATIONS.
    ------------------------------------------------

 NO OUTPUT CONTROL FOR STRESS PERIOD   15   TIME STEP    3
 
 SOLVING FOR HEAD 
                                                   Max.-Head-Change                         Max.-Flux-Residual
  Residual-Control   Outer-Iter.   Inner-Iter.     Column Row Layer    Maximum-Head-Change  Column Row Layer    Maximum-Flux-Residual          L2-NORM 
          0                 1           2             4    7     1       0.1308163102E-01       4    7    1         0.6860536200E+00      0.1761849580E+01
          0                 2           2             4    7     1      -0.1271799971E-02       4    7    1        -0.6856829722E-01      0.1761261655E+00
          0                 3           1             4    7     1       0.8653962027E-04       4    7    1         0.4796154323E-02      0.1232310843E-01

    ------------------------------------------------
       NWT REQUIRED            3 OUTER ITERATIONS 
       AND A TOTAL OF          5 INNER ITERATIONS.
    ------------------------------------------------

 NO OUTPUT CONTROL FOR STRESS PERIOD   15   TIME STEP    4
 
 SOLVING FOR HEAD 
                                                   Max.-Head-Change                         Max.-Flux-Residual
  Residual-Control   Outer-Iter.   Inner-Iter.     Column Row Layer    Maximum-Head-Change  Column Row Layer    Maximum-Flux-Residual          L2-NORM 
          0                 1           2             4    7     1       0.1296117489E-01       4    7    1         0.6797064544E+00      0.1748277573E+01
          0                 2           2             4    7     1      -0.1260089133E-02       4    7    1        -0.6793391895E-01      0.1747696621E+00
          0                 3           1             4    7     1       0.8574275556E-04       4    7    1         0.4751781280E-02      0.1222821858E-01

    ------------------------------------------------
       NWT REQUIRED            3 OUTER ITERATIONS 
       AND A TOTAL OF          5 INNER ITERATIONS.
    ------------------------------------------------

 NO OUTPUT CONTROL FOR STRESS PERIOD   15   TIME STEP    5
 
 SOLVING FOR HEAD 
                                                   Max.-Head-Change                         Max.-Flux-Residual
  Residual-Control   Outer-Iter.   Inner-Iter.     Column Row Layer    Maximum-Head-Change  Column Row Layer    Maximum-Flux-Residual          L2-NORM 
          0                 1           2             4    7     1       0.1284236038E-01       4    7    1         0.6734462388E+00      0.1734889685E+01
          0                 2           2             4    7     1      -0.1248537895E-02       4    7    1        -0.6730823115E-01      0.1734315050E+00
          0                 3           1             4    7     1       0.8495675073E-04       4    7    1         0.4708016098E-02      0.1213459717E-01

    ------------------------------------------------
       NWT REQUIRED            3 OUTER ITERATIONS 
       AND A TOTAL OF          5 INNER ITERATIONS.
    ------------------------------------------------

 NO OUTPUT CONTROL FOR STRESS PERIOD   15   TIME STEP    6
 
 SOLVING FOR HEAD 
                                                   Max.-Head-Change                         Max.-Flux-Residual
  Residual-Control   Outer-Iter.   Inner-Iter.     Column Row Layer    Maximum-Head-Change  Column Row Layer    Maximum-Flux-Residual          L2-NORM 
          0                 1           2             4    7     1       0.1272514961E-01       4    7    1         0.6672711379E+00      0.1721662923E+01
          0                 2           2             4    7     1      -0.1237142575E-02       4    7    1        -0.6669105038E-01      0.1721094244E+00
          0                 3           1             4    7     1       0.8418135525E-04       4    7    1         0.4664845947E-02      0.1204214230E-01

    ------------------------------------------------
       NWT REQUIRED            3 OUTER ITERATIONS 
       AND A TOTAL OF          5 INNER ITERATIONS.
    ------------------------------------------------

 NO OUTPUT CONTROL FOR STRESS PERIOD   15   TIME STEP    7
 
 SOLVING FOR HEAD 
                                                   Max.-Head-Change                         Max.-Flux-Residual
  Residual-Control   Outer-Iter.   Inner-Iter.     Column Row Layer    Maximum-Head-Change  Column Row Layer    Maximum-Flux-Residual          L2-NORM 
          0                 1           2             4    7     1       0.1260964051E-01       4    7    1         0.6611865526E+00      0.1708603087E+01
          0                 2           2             4    7     1      -0.1225912696E-02       4    7    1        -0.6608291644E-01      0.1708039939E+00
          0                 3           1             4    7     1       0.8341721772E-04       4    7    1         0.4622308633E-02      0.1195079611E-01

    ------------------------------------------------
       NWT REQUIRED            3 OUTER ITERATIONS 
       AND A TOTAL OF          5 INNER ITERATIONS.
    ------------------------------------------------

 NO OUTPUT CONTROL FOR STRESS PERIOD   15   TIME STEP    8
 
 SOLVING FOR HEAD 
                                                   Max.-Head-Change                         Max.-Flux-Residual
  Residual-Control   Outer-Iter.   Inner-Iter.     Column Row Layer    Maximum-Head-Change  Column Row Layer    Maximum-Flux-Residual          L2-NORM 
          0                 1           2             4    7     1       0.1249566356E-01       4    7    1         0.6551828316E+00      0.1695708626E+01
          0                 2           2             4    7     1      -0.1214831773E-02       4    7    1        -0.6548286470E-01      0.1695150830E+00
          0                 3           1             4    7     1       0.8266321549E-04       4    7    1         0.4580336631E-02      0.1186071171E-01

    ------------------------------------------------
       NWT REQUIRED            3 OUTER ITERATIONS 
       AND A TOTAL OF          5 INNER ITERATIONS.
    ------------------------------------------------

 NO OUTPUT CONTROL FOR STRESS PERIOD   15   TIME STEP    9
 
 SOLVING FOR HEAD 
                                                   Max.-Head-Change                         Max.-Flux-Residual
  Residual-Control   Outer-Iter.   Inner-Iter.     Column Row Layer    Maximum-Head-Change  Column Row Layer    Maximum-Flux-Residual          L2-NORM 
          0                 1           2             4    7     1       0.1238318157E-01       4    7    1         0.6492585493E+00      0.1682966328E+01
          0                 2           2             4    7     1      -0.1203896192E-02       4    7    1        -0.6489075268E-01      0.1682413420E+00
          0                 3           1             4    7     1       0.8191910313E-04       4    7    1         0.4538919990E-02      0.1177151649E-01

    ------------------------------------------------
       NWT REQUIRED            3 OUTER ITERATIONS 
       AND A TOTAL OF          5 INNER ITERATIONS.
    ------------------------------------------------

 NO OUTPUT CONTROL FOR STRESS PERIOD   15   TIME STEP   10
 
 SOLVING FOR HEAD 
                                                   Max.-Head-Change                         Max.-Flux-Residual
  Residual-Control   Outer-Iter.   Inner-Iter.     Column Row Layer    Maximum-Head-Change  Column Row Layer    Maximum-Flux-Residual          L2-NORM 
          0                 1           2             4    7     1       0.1227216674E-01       4    7    1         0.6434117778E+00      0.1670379390E+01
          0                 2           2             4    7     1      -0.1193103251E-02       4    7    1        -0.6430638765E-01      0.1669831117E+00
          0                 3           1             4    7     1       0.8118469709E-04       4    7    1         0.4498045244E-02      0.1168348517E-01

    ------------------------------------------------
       NWT REQUIRED            3 OUTER ITERATIONS 
       AND A TOTAL OF          5 INNER ITERATIONS.
    ------------------------------------------------

 NO OUTPUT CONTROL FOR STRESS PERIOD   15   TIME STEP   11
 
 SOLVING FOR HEAD 
                                                   Max.-Head-Change                         Max.-Flux-Residual
  Residual-Control   Outer-Iter.   Inner-Iter.     Column Row Layer    Maximum-Head-Change  Column Row Layer    Maximum-Flux-Residual          L2-NORM 
          0                 1           2             4    7     1       0.1216272179E-01       4    7    1         0.6376484416E+00      0.1657945740E+01
          0                 2           2             4    7     1      -0.1182462936E-02       4    7    1        -0.6373036184E-01      0.1657402079E+00
          0                 3           1             4    7     1       0.8046067580E-04       4    7    1         0.4457753795E-02      0.1159653707E-01

    ------------------------------------------------
       NWT REQUIRED            3 OUTER ITERATIONS 
       AND A TOTAL OF          5 INNER ITERATIONS.
    ------------------------------------------------

 NO OUTPUT CONTROL FOR STRESS PERIOD   15   TIME STEP   12
 
 SOLVING FOR HEAD 
                                                   Max.-Head-Change                         Max.-Flux-Residual
  Residual-Control   Outer-Iter.   Inner-Iter.     Column Row Layer    Maximum-Head-Change  Column Row Layer    Maximum-Flux-Residual          L2-NORM 
          0                 1           2             4    7     1       0.1205467691E-01       4    7    1         0.6319591352E+00      0.1645659370E+01
          0                 2           2             4    7     1      -0.1171958738E-02       4    7    1        -0.6316173511E-01      0.1645120283E+00
          0                 3           1             4    7     1       0.7974591720E-04       4    7    1         0.4417979885E-02      0.1151058578E-01

    ------------------------------------------------
       NWT REQUIRED            3 OUTER ITERATIONS 
       AND A TOTAL OF          5 INNER ITERATIONS.
    ------------------------------------------------

 NO OUTPUT CONTROL FOR STRESS PERIOD   15   TIME STEP   13
 
 SOLVING FOR HEAD 
                                                   Max.-Head-Change                         Max.-Flux-Residual
  Residual-Control   Outer-Iter.   Inner-Iter.     Column Row Layer    Maximum-Head-Change  Column Row Layer    Maximum-Flux-Residual          L2-NORM 
          0                 1           2             4    7     1       0.1194813719E-01       4    7    1         0.6263497856E+00      0.1633516175E+01
          0                 2           2             4    7     1      -0.1161600874E-02       4    7    1        -0.6260109988E-01      0.1632981567E+00
          0                 3           1             4    7     1       0.7904111591E-04       4    7    1         0.4378764983E-02      0.1142566874E-01

    ------------------------------------------------
       NWT REQUIRED            3 OUTER ITERATIONS 
       AND A TOTAL OF          5 INNER ITERATIONS.
    ------------------------------------------------

 NO OUTPUT CONTROL FOR STRESS PERIOD   15   TIME STEP   14
 
 SOLVING FOR HEAD 
                                                   Max.-Head-Change                         Max.-Flux-Residual
  Residual-Control   Outer-Iter.   Inner-Iter.     Column Row Layer    Maximum-Head-Change  Column Row Layer    Maximum-Flux-Residual          L2-NORM 
          0                 1           2             4    7     1       0.1184293657E-01       4    7    1         0.6208111103E+00      0.1621509137E+01
          0                 2           2             4    7     1      -0.1151373199E-02       4    7    1        -0.6204752836E-01      0.1620978500E+00
          0                 3           1             4    7     1       0.7834517318E-04       4    7    1         0.4340044156E-02      0.1134169847E-01

    ------------------------------------------------
       NWT REQUIRED            3 OUTER ITERATIONS 
       AND A TOTAL OF          5 INNER ITERATIONS.
    ------------------------------------------------

 NO OUTPUT CONTROL FOR STRESS PERIOD   15   TIME STEP   15
 
 SOLVING FOR HEAD 
                                                   Max.-Head-Change                         Max.-Flux-Residual
  Residual-Control   Outer-Iter.   Inner-Iter.     Column Row Layer    Maximum-Head-Change  Column Row Layer    Maximum-Flux-Residual          L2-NORM 
          0                 1           2             4    7     1       0.1173905138E-01       4    7    1         0.6153418648E+00      0.1609654301E+01
          0                 2           2             4    7     1      -0.1141273411E-02       4    7    1        -0.6150089618E-01      0.1609128229E+00
          0                 3           1             4    7     1       0.7765793258E-04       4    7    1         0.4301808728E-02      0.1125880782E-01

    ------------------------------------------------
       NWT REQUIRED            3 OUTER ITERATIONS 
       AND A TOTAL OF          5 INNER ITERATIONS.
    ------------------------------------------------

 NO OUTPUT CONTROL FOR STRESS PERIOD   15   TIME STEP   16
 
 SOLVING FOR HEAD 
                                                   Max.-Head-Change                         Max.-Flux-Residual
  Residual-Control   Outer-Iter.   Inner-Iter.     Column Row Layer    Maximum-Head-Change  Column Row Layer    Maximum-Flux-Residual          L2-NORM 
          0                 1           2             4    7     1       0.1163658746E-01       4    7    1         0.6099481879E+00      0.1597925475E+01
          0                 2           2             4    7     1      -0.1131311802E-02       4    7    1        -0.6096181689E-01      0.1597403555E+00
          0                 3           1             4    7     1       0.7698009465E-04       4    7    1         0.4264101610E-02      0.1117674847E-01

    ------------------------------------------------
       NWT REQUIRED            3 OUTER ITERATIONS 
       AND A TOTAL OF          5 INNER ITERATIONS.
    ------------------------------------------------

 NO OUTPUT CONTROL FOR STRESS PERIOD   15   TIME STEP   17
 
 SOLVING FOR HEAD 
                                                   Max.-Head-Change                         Max.-Flux-Residual
  Residual-Control   Outer-Iter.   Inner-Iter.     Column Row Layer    Maximum-Head-Change  Column Row Layer    Maximum-Flux-Residual          L2-NORM 
          0                 1           2             4    7     1       0.1153551742E-01       4    7    1         0.6046282020E+00      0.1586336472E+01
          0                 2           2             4    7     1      -0.1121485707E-02       4    7    1        -0.6043010283E-01      0.1585818429E+00
          0                 3           1             4    7     1       0.7631147727E-04       4    7    1         0.4226909645E-02      0.1109568126E-01

    ------------------------------------------------
       NWT REQUIRED            3 OUTER ITERATIONS 
       AND A TOTAL OF          5 INNER ITERATIONS.
    ------------------------------------------------

 NO OUTPUT CONTROL FOR STRESS PERIOD   15   TIME STEP   18
 
 SOLVING FOR HEAD 
                                                   Max.-Head-Change                         Max.-Flux-Residual
  Residual-Control   Outer-Iter.   Inner-Iter.     Column Row Layer    Maximum-Head-Change  Column Row Layer    Maximum-Flux-Residual          L2-NORM 
          0                 1           2             4    7     1       0.1143567185E-01       4    7    1         0.5993731196E+00      0.1574877336E+01
          0                 2           2             4    7     1      -0.1111778657E-02       4    7    1        -0.5990487572E-01      0.1574363668E+00
          0                 3           1             4    7     1       0.7565096051E-04       4    7    1         0.4190171439E-02      0.1101554775E-01

    ------------------------------------------------
       NWT REQUIRED            3 OUTER ITERATIONS 
       AND A TOTAL OF          5 INNER ITERATIONS.
    ------------------------------------------------

 NO OUTPUT CONTROL FOR STRESS PERIOD   15   TIME STEP   19
 
 SOLVING FOR HEAD 
                                                   Max.-Head-Change                         Max.-Flux-Residual
  Residual-Control   Outer-Iter.   Inner-Iter.     Column Row Layer    Maximum-Head-Change  Column Row Layer    Maximum-Flux-Residual          L2-NORM 
          0                 1           2             4    7     1       0.1133702935E-01       4    7    1         0.5941815238E+00      0.1563540947E+01
          0                 2           2             4    7     1      -0.1102188572E-02       4    7    1        -0.5938599391E-01      0.1563030905E+00
          0                 3           1             4    7     1       0.7499840272E-04       4    7    1         0.4153877085E-02      0.1093625462E-01

    ------------------------------------------------
       NWT REQUIRED            3 OUTER ITERATIONS 
       AND A TOTAL OF          5 INNER ITERATIONS.
    ------------------------------------------------

 NO OUTPUT CONTROL FOR STRESS PERIOD   15   TIME STEP   20
 
 SOLVING FOR HEAD 
                                                   Max.-Head-Change                         Max.-Flux-Residual
  Residual-Control   Outer-Iter.   Inner-Iter.     Column Row Layer    Maximum-Head-Change  Column Row Layer    Maximum-Flux-Residual          L2-NORM 
          0                 1           2             4    7     1       0.1123970322E-01       4    7    1         0.5890596719E+00      0.1552338728E+01
          0                 2           2             4    7     1      -0.1092726464E-02       4    7    1        -0.5887408286E-01      0.1551832877E+00
          0                 3           1             4    7     1       0.7435455320E-04       4    7    1         0.4118070301E-02      0.1085792019E-01

    ------------------------------------------------
       NWT REQUIRED            3 OUTER ITERATIONS 
       AND A TOTAL OF          5 INNER ITERATIONS.
    ------------------------------------------------

 NO OUTPUT CONTROL FOR STRESS PERIOD   15   TIME STEP   21
 
 SOLVING FOR HEAD 
                                                   Max.-Head-Change                         Max.-Flux-Residual
  Residual-Control   Outer-Iter.   Inner-Iter.     Column Row Layer    Maximum-Head-Change  Column Row Layer    Maximum-Flux-Residual          L2-NORM 
          0                 1           2             4    7     1       0.1114353132E-01       4    7    1         0.5839987042E+00      0.1541261812E+01
          0                 2           2             4    7     1      -0.1083376573E-02       4    7    1        -0.5836825698E-01      0.1540759928E+00
          0                 3           1             4    7     1       0.7371833935E-04       4    7    1         0.4082689162E-02      0.1078044507E-01

    ------------------------------------------------
       NWT REQUIRED            3 OUTER ITERATIONS 
       AND A TOTAL OF          5 INNER ITERATIONS.
    ------------------------------------------------

 NO OUTPUT CONTROL FOR STRESS PERIOD   15   TIME STEP   22
 
 SOLVING FOR HEAD 
                                                   Max.-Head-Change                         Max.-Flux-Residual
  Residual-Control   Outer-Iter.   Inner-Iter.     Column Row Layer    Maximum-Head-Change  Column Row Layer    Maximum-Flux-Residual          L2-NORM 
          0                 1           2             4    7     1       0.1104862926E-01       4    7    1         0.5790049486E+00      0.1530304809E+01
          0                 2           2             4    7     1      -0.1074150138E-02       4    7    1        -0.5786914881E-01      0.1529806961E+00
          0                 3           1             4    7     1       0.7309052599E-04       4    7    1         0.4047777919E-02      0.1070379911E-01

    ------------------------------------------------
       NWT REQUIRED            3 OUTER ITERATIONS 
       AND A TOTAL OF          5 INNER ITERATIONS.
    ------------------------------------------------

 NO OUTPUT CONTROL FOR STRESS PERIOD   15   TIME STEP   23
 
 SOLVING FOR HEAD 
                                                   Max.-Head-Change                         Max.-Flux-Residual
  Residual-Control   Outer-Iter.   Inner-Iter.     Column Row Layer    Maximum-Head-Change  Column Row Layer    Maximum-Flux-Residual          L2-NORM 
          0                 1           2             4    7     1       0.1095496926E-01       4    7    1         0.5740770326E+00      0.1519474265E+01
          0                 2           2             4    7     1      -0.1065044456E-02       4    7    1        -0.5737662112E-01      0.1518979992E+00
          0                 3           1             4    7     1       0.7247092956E-04       4    7    1         0.4013326951E-02      0.1062807612E-01

    ------------------------------------------------
       NWT REQUIRED            3 OUTER ITERATIONS 
       AND A TOTAL OF          5 INNER ITERATIONS.
    ------------------------------------------------

 NO OUTPUT CONTROL FOR STRESS PERIOD   15   TIME STEP   24
 
 SOLVING FOR HEAD 
                                                   Max.-Head-Change                         Max.-Flux-Residual
  Residual-Control   Outer-Iter.   Inner-Iter.     Column Row Layer    Maximum-Head-Change  Column Row Layer    Maximum-Flux-Residual          L2-NORM 
          0                 1           2             4    7     1       0.1086239283E-01       4    7    1         0.5692061473E+00      0.1508763107E+01
          0                 2           2             4    7     1      -0.1056044120E-02       4    7    1        -0.5688979347E-01      0.1508272810E+00
          0                 3           1             4    7     1       0.7185850138E-04       4    7    1         0.3979274701E-02      0.1055314136E-01

    ------------------------------------------------
       NWT REQUIRED            3 OUTER ITERATIONS 
       AND A TOTAL OF          5 INNER ITERATIONS.
    ------------------------------------------------

 NO OUTPUT CONTROL FOR STRESS PERIOD   15   TIME STEP   25
 
 SOLVING FOR HEAD 
                                                   Max.-Head-Change                         Max.-Flux-Residual
  Residual-Control   Outer-Iter.   Inner-Iter.     Column Row Layer    Maximum-Head-Change  Column Row Layer    Maximum-Flux-Residual          L2-NORM 
          0                 1           2             4    7     1       0.1077101460E-01       4    7    1         0.5643988110E+00      0.1498162740E+01
          0                 2           2             4    7     1      -0.1047160276E-02       4    7    1        -0.5640931742E-01      0.1497676293E+00
          0                 3           1             4    7     1       0.7125399974E-04       4    7    1         0.3945666725E-02      0.1047900355E-01

    ------------------------------------------------
       NWT REQUIRED            3 OUTER ITERATIONS 
       AND A TOTAL OF          5 INNER ITERATIONS.
    ------------------------------------------------

 NO OUTPUT CONTROL FOR STRESS PERIOD   15   TIME STEP   26
 
 SOLVING FOR HEAD 
                                                   Max.-Head-Change                         Max.-Flux-Residual
  Residual-Control   Outer-Iter.   Inner-Iter.     Column Row Layer    Maximum-Head-Change  Column Row Layer    Maximum-Flux-Residual          L2-NORM 
          0                 1           2             4    7     1       0.1068067586E-01       4    7    1         0.5596462315E+00      0.1487685271E+01
          0                 2           2             4    7     1      -0.1038377491E-02       4    7    1        -0.5593431412E-01      0.1487201369E+00
          0                 3           1             4    7     1       0.7065637464E-04       4    7    1         0.3912441537E-02      0.1040573941E-01

    ------------------------------------------------
       NWT REQUIRED            3 OUTER ITERATIONS 
       AND A TOTAL OF          5 INNER ITERATIONS.
    ------------------------------------------------

 NO OUTPUT CONTROL FOR STRESS PERIOD   15   TIME STEP   27
 
 SOLVING FOR HEAD 
                                                   Max.-Head-Change                         Max.-Flux-Residual
  Residual-Control   Outer-Iter.   Inner-Iter.     Column Row Layer    Maximum-Head-Change  Column Row Layer    Maximum-Flux-Residual          L2-NORM 
          0                 1           2             4    7     1       0.1059163096E-01       4    7    1         0.5549622838E+00      0.1477319297E+01
          0                 2           2             4    7     1      -0.1029720495E-02       4    7    1        -0.5546617038E-01      0.1476840501E+00
          0                 3           1             4    7     1       0.7006730930E-04       4    7    1         0.3879696189E-02      0.1033323020E-01

    ------------------------------------------------
       NWT REQUIRED            3 OUTER ITERATIONS 
       AND A TOTAL OF          5 INNER ITERATIONS.
    ------------------------------------------------

 NO OUTPUT CONTROL FOR STRESS PERIOD   15   TIME STEP   28
 
 SOLVING FOR HEAD 
                                                   Max.-Head-Change                         Max.-Flux-Residual
  Residual-Control   Outer-Iter.   Inner-Iter.     Column Row Layer    Maximum-Head-Change  Column Row Layer    Maximum-Flux-Residual          L2-NORM 
          0                 1           2             4    7     1       0.1050356744E-01       4    7    1         0.5503233147E+00      0.1588498527E+01
          0                 2           2             4    7     1      -0.1021158901E-02       4    7    1        -0.5500252169E-01      0.1581632569E+00
          0                 3           1             4    7     1       0.6948473426E-04       4    7    1         0.3847265205E-02      0.1100812627E-01

    ------------------------------------------------
       NWT REQUIRED            3 OUTER ITERATIONS 
       AND A TOTAL OF          5 INNER ITERATIONS.
    ------------------------------------------------

 NO OUTPUT CONTROL FOR STRESS PERIOD   15   TIME STEP   29
 
 SOLVING FOR HEAD 
                                                   Max.-Head-Change                         Max.-Flux-Residual
  Residual-Control   Outer-Iter.   Inner-Iter.     Column Row Layer    Maximum-Head-Change  Column Row Layer    Maximum-Flux-Residual          L2-NORM 
          0                 1           2             4   13     1       0.2959009282E-01       4   13    1         0.1713994019E+01      0.3372654819E+01
          0                 2           2             4   13     1      -0.2845920129E-02       4   13    1        -0.1695017503E+00      0.3285059971E+00
          0                 3           2             4   13     1       0.1907731388E-03       4   13    1         0.1168283635E-01      0.2218378862E-01
          0                 4           1             4   13     1      -0.7405571956E-05       4   13    1        -0.4663509890E-03      0.8557284312E-03

    ------------------------------------------------
       NWT REQUIRED            4 OUTER ITERATIONS 
       AND A TOTAL OF          7 INNER ITERATIONS.
    ------------------------------------------------

 NO OUTPUT CONTROL FOR STRESS PERIOD   15   TIME STEP   30



 STREAM LISTING     PERIOD     15   STEP       30

 LAYER ROW COL. STREAM  RCH.  FLOW INTO     FLOW TO   FLOW OUT OF   OVRLND.     DIRECT     STREAM       STREAM     STREAM     STREAM   STREAMBED  STREAMBED
                SEG.NO.  NO.  STRM. RCH.    AQUIFER    STRM. RCH.    RUNOFF     PRECIP       ET          HEAD       DEPTH      WIDTH   CONDCTNC.   GRADIENT

   1    1    1     1     1    9.8001E+01  4.7086E-01   9.7531E+01  0.000E+00  0.000E+00  0.000E+00  1.09484E+03  1.792E+00  2.184E+01  9.826E-02  1.597E+00
   1    2    2     1     2    9.7531E+01  7.3063E-01   9.6800E+01  0.000E+00  0.000E+00  0.000E+00  1.08985E+03  1.790E+00  2.179E+01  1.525E-01  1.597E+00
   1    3    3     1     3    9.6800E+01  6.2448E-01   9.6176E+01  0.000E+00  0.000E+00  0.000E+00  1.08421E+03  1.787E+00  2.174E+01  1.304E-01  1.596E+00
   1    3    4     1     4    9.6176E+01  5.7618E-01   9.5599E+01  0.000E+00  0.000E+00  0.000E+00  1.07919E+03  1.785E+00  2.170E+01  1.204E-01  1.595E+00
   1    4    5     2     1    9.3599E+01  4.4168E-01   9.3158E+01  0.000E+00  0.000E+00  0.000E+00  1.07460E+03  2.663E+00  1.200E+01  7.800E-02  1.888E+00
   1    5    6     2     2    9.3158E+01  3.3935E-01   9.2818E+01  0.000E+00  0.000E+00  0.000E+00  1.06917E+03  2.656E+00  1.200E+01  6.000E-02  1.885E+00
   1    6    6     2     3    9.2818E+01  3.3900E-01   9.2479E+01  0.000E+00  0.000E+00  0.000E+00  1.06444E+03  2.650E+00  1.200E+01  6.000E-02  1.883E+00
   1    7    6     2     4    9.2479E+01  3.3865E-01   9.2141E+01  0.000E+00  0.000E+00  0.000E+00  1.05972E+03  2.644E+00  1.200E+01  6.000E-02  1.881E+00
   1    8    6     2     5    9.2141E+01  3.3830E-01   9.1802E+01  0.000E+00  0.000E+00  0.000E+00  1.05500E+03  2.638E+00  1.200E+01  6.000E-02  1.879E+00
   1    3    5     3     1    2.0000E+00  2.8252E-01   1.7175E+00  0.000E+00  0.000E+00  0.000E+00  1.07555E+03  1.909E+00  9.636E+00  7.227E-02  1.955E+00
   1    3    6     3     2    1.7175E+00  2.4905E-01   1.4684E+00  0.000E+00  0.000E+00  0.000E+00  1.07264E+03  1.727E+00  8.909E+00  6.682E-02  1.864E+00
   1    3    7     3     3    1.4684E+00  1.9718E-01   1.2712E+00  0.000E+00  0.000E+00  0.000E+00  1.06987E+03  1.555E+00  8.218E+00  5.547E-02  1.777E+00
   1    4    8     3     4    1.2712E+00  2.2567E-01   1.0456E+00  0.000E+00  0.000E+00  0.000E+00  1.06682E+03  1.364E+00  7.455E+00  6.709E-02  1.682E+00
   1    5    8     3     5    1.0456E+00  1.5790E-01   8.8768E-01  0.000E+00  0.000E+00  0.000E+00  1.06362E+03  1.164E+00  6.655E+00  4.991E-02  1.582E+00
   1    6    8     3     6    8.8768E-01  5.5980E-02   8.3170E-01  0.000E+00  0.000E+00  0.000E+00  1.06158E+03  1.036E+00  6.145E+00  1.844E-02  1.518E+00
   1    5   10     4     1    1.0000E+01  9.0919E-02   9.9091E+00  0.000E+00  0.000E+00  0.000E+00  1.07836E+03  6.368E-01  1.000E+01  2.500E-02  1.212E+00
   1    5    9     4     2    9.9091E+00  1.8158E-01   9.7275E+00  0.000E+00  0.000E+00  0.000E+00  1.07154E+03  6.315E-01  1.000E+01  5.000E-02  1.211E+00
   1    6    8     4     3    9.7275E+00  1.2689E-01   9.6006E+00  0.000E+00  0.000E+00  0.000E+00  1.06381E+03  6.256E-01  1.000E+01  3.500E-02  1.209E+00
   1    6    8     5     1    1.0432E+01  2.2686E-01   1.0205E+01  0.000E+00  0.000E+00  0.000E+00  1.05868E+03  6.790E-01  1.542E+01  6.166E-02  1.226E+00
   1    7    7     5     2    1.0205E+01  2.7894E-01   9.9265E+00  0.000E+00  0.000E+00  0.000E+00  1.05417E+03  6.732E-01  1.519E+01  7.594E-02  1.224E+00
   1    8    7     5     3    9.9265E+00  1.9221E-01   9.7343E+00  0.000E+00  0.000E+00  0.000E+00  1.04992E+03  6.676E-01  1.497E+01  5.241E-02  1.223E+00
   1    8    6     5     4    9.7343E+00  1.3577E-01   9.5985E+00  0.000E+00  0.000E+00  0.000E+00  1.04691E+03  6.637E-01  1.482E+01  3.706E-02  1.221E+00
   1    9    6     6     1    1.0140E+02  3.4955E-01   1.0105E+02  0.000E+00  0.000E+00  0.000E+00  1.04555E+03  2.826E+00  1.200E+01  6.000E-02  1.942E+00
   1   10    7     6     2    1.0105E+02  3.4920E-01   1.0070E+02  0.000E+00  0.000E+00  0.000E+00  1.04100E+03  2.820E+00  1.200E+01  6.000E-02  1.940E+00
   1   11    7     6     3    1.0070E+02  3.4885E-01   1.0035E+02  0.000E+00  0.000E+00  0.000E+00  1.03645E+03  2.814E+00  1.200E+01  6.000E-02  1.938E+00
   1   12    7     6     4    1.0035E+02  3.4850E-01   1.0000E+02  0.000E+00  0.000E+00  0.000E+00  1.03190E+03  2.808E+00  1.200E+01  6.000E-02  1.936E+00
   1   13    7     6     5    1.0000E+02  3.8481E-02   9.9966E+01  0.000E+00  0.000E+00  0.000E+00  1.02871E+03  2.805E+00  1.200E+01  2.400E-02  5.345E-01
   1   14    9     7     1    1.5000E+02  1.3296E+00   1.4867E+02  0.000E+00  0.000E+00  0.000E+00  1.03987E+03  2.288E+00  5.529E+01  5.593E-01  7.924E-01
   1   13    8     7     2    1.4867E+02  1.8132E+00   1.4686E+02  0.000E+00  0.000E+00  0.000E+00  1.03478E+03  2.279E+00  5.526E+01  6.148E-01  9.831E-01
   1   13    7     7     3    1.4686E+02  1.4405E+00   1.4542E+02  0.000E+00  0.000E+00  0.000E+00  1.02969E+03  2.271E+00  5.522E+01  5.585E-01  8.598E-01
   1   13    6     8     1    2.4538E+02  1.2467E+00   2.4414E+02  0.000E+00  0.000E+00  0.000E+00  1.02526E+03  3.385E+00  4.908E+01  5.001E-01  8.310E-01
   1   13    5     8     2    2.4414E+02  4.0155E-01   2.4373E+02  0.000E+00  0.000E+00  0.000E+00  1.01901E+03  3.380E+00  4.901E+01  4.995E-01  2.680E-01
   1   13    4     8     3    2.4373E+02 -8.5283E-01   2.4459E+02  0.000E+00  0.000E+00  0.000E+00  1.01276E+03  3.381E+00  4.903E+01  4.996E+00 -5.690E-02
   1   13    3     8     4    2.4459E+02 -2.2565E+00   2.4684E+02  0.000E+00  0.000E+00  0.000E+00  1.00651E+03  3.390E+00  4.915E+01  5.008E+00 -1.502E-01
   1   13    2     8     5    2.4684E+02 -1.0733E+00   2.4792E+02  0.000E+00  0.000E+00  0.000E+00  1.00027E+03  3.398E+00  4.927E+01  5.021E+00 -7.125E-02
   1   13    1     8     6    2.4792E+02 -1.1112E+00   2.4903E+02  0.000E+00  0.000E+00  0.000E+00  9.95279E+02  3.404E+00  4.935E+01  3.018E+00 -1.227E-01





UNSATURATED ZONE PACKAGE VOLUMETRIC BUDGET FOR  TIME STEP    30 STRESS PERIOD   15
  ------------------------------------------------------------------------------



     CUMULATIVE VOLUMES      L**3       RATES FOR THIS TIME STEP      L**3/T
     ------------------                 ------------------------

           IN:                                      IN:
           ---                                      ---
        INFILTRATION =   466320666.8419          INFILTRATION =           0.8475

          OUT:                                     OUT:
          ----                                     ----
              UZF ET =   427294256.9869                UZF ET =           0.7500
        UZF RECHARGE =    37930571.1492          UZF RECHARGE =           0.0001

            IN - OUT =     1095838.7059              IN - OUT =       9.7366E-02

          STORAGE:                                 STORAGE:
          --------                                 --------
      STORAGE CHANGE =     1095840.7165        STORAGE CHANGE =       9.7366E-02

 PERCENT DISCREPANCY IS DIFFERENCE BETWEEN IN-OUT MINUS CHANGE IN STORAGE
 DIVIDED BY THE AVERAGE OF IN AND OUT TIMES 100

 PERCENT DISCREPANCY =           0.00     PERCENT DISCREPANCY =           0.00






1
  VOLUMETRIC BUDGET FOR AGRICULTURAL FIELDS AT  END OF TIME STEP   30, STRESS PERIOD  15
  ------------------------------------------------------------------------------

     CUMULATIVE VOLUMES      L**3       RATES FOR THIS TIME STEP      L**3/T
     ------------------                 ------------------------

           IN:                                      IN:
           ---                                      ---
               AG WELLS  =   435042048.0000                 AG WELLS  =           0.0000
      DIVERSION SEGMENTS =           0.0000        DIVERSION SEGMENTS =           0.0000
           GW IRRIGATION =           0.0000             GW IRRIGATION =           0.0000
           SW IRRIGATION =           0.0000             SW IRRIGATION =           0.0000
        SYSTEM LOSSES GW =           0.0000          SYSTEM LOSSES GW =           0.0000
        SYSTEM LOSSES SW =           0.0000          SYSTEM LOSSES SW =           0.0000

                TOTAL IN =   435042048.0000                  TOTAL IN =           0.0000

          OUT:                                     OUT:
          ----                                     ----
               AG WELLS  =           0.0000                 AG WELLS  =           0.0000
      DIVERSION SEGMENTS =           0.0000        DIVERSION SEGMENTS =           0.0000
           GW IRRIGATION =   435042048.0000             GW IRRIGATION =           0.0000
           SW IRRIGATION =           0.0000             SW IRRIGATION =           0.0000
        SYSTEM LOSSES GW =           0.0000          SYSTEM LOSSES GW =           0.0000
        SYSTEM LOSSES SW =           0.0000          SYSTEM LOSSES SW =           0.0000

               TOTAL OUT =   435042048.0000                 TOTAL OUT =           0.0000

                IN - OUT =           0.0000                  IN - OUT =           0.0000

     PERCENT DISCREPANCY =           0.00         PERCENT DISCREPANCY =           0.00



1
  VOLUMETRIC BUDGET FOR ENTIRE MODEL AT END OF TIME STEP   30, STRESS PERIOD  15
  ------------------------------------------------------------------------------

     CUMULATIVE VOLUMES      L**3       RATES FOR THIS TIME STEP      L**3/T
     ------------------                 ------------------------

           IN:                                      IN:
           ---                                      ---
             STORAGE     =   589682560.0000               STORAGE     =           3.7169
       CONSTANT HEAD     =           0.0000         CONSTANT HEAD     =           0.0000
     HEAD DEP BOUNDS     =    10533747.0000       HEAD DEP BOUNDS     =           0.2853
      STREAM LEAKAGE     =   454588000.0000        STREAM LEAKAGE     =          14.2667
        UZF RECHARGE     =    37930572.0000          UZF RECHARGE     =       1.3375E-04
               GW ET     =           0.0000                 GW ET     =           0.0000
     SURFACE LEAKAGE     =           0.0000       SURFACE LEAKAGE     =           0.0000
           AG WELLS      =           0.0000             AG WELLS      =           0.0000

                TOTAL IN =  1092734976.0000                  TOTAL IN =          18.2690

          OUT:                                     OUT:
          ----                                     ----
             STORAGE     =   248088608.0000               STORAGE     =          12.6846
       CONSTANT HEAD     =           0.0000         CONSTANT HEAD     =           0.0000
     HEAD DEP BOUNDS     =    10850498.0000       HEAD DEP BOUNDS     =           0.2906
      STREAM LEAKAGE     =   384995680.0000        STREAM LEAKAGE     =           5.2938
        UZF RECHARGE     =           0.0000          UZF RECHARGE     =           0.0000
               GW ET     =    13758094.0000                 GW ET     =           0.0000
     SURFACE LEAKAGE     =           0.0000       SURFACE LEAKAGE     =           0.0000
           AG WELLS      =   435042048.0000             AG WELLS      =           0.0000

               TOTAL OUT =  1092734976.0000                 TOTAL OUT =          18.2690

                IN - OUT =           0.0000                  IN - OUT =       3.4332E-05

     PERCENT DISCREPANCY =           0.00         PERCENT DISCREPANCY =           0.00






         TIME SUMMARY AT END OF TIME STEP   30 IN STRESS PERIOD   15
                    SECONDS     MINUTES      HOURS       DAYS        YEARS
                    -----------------------------------------------------------
   TIME STEP LENGTH  87667.      1461.1      24.352      1.0147     2.77799E-03
 STRESS PERIOD TIME 2.63000E+06  43833.      730.56      30.440     8.33397E-02
         TOTAL TIME 3.69063E+07 6.15106E+05  10252.      427.16      1.1695    
1
1
                            STRESS PERIOD NO.   16, LENGTH =   2630000.    
                            -----------------------------------------------

                              NUMBER OF TIME STEPS =    30

                               MULTIPLIER FOR DELT =     1.000

                            INITIAL TIME STEP SIZE =   87666.66    

 REUSING NON-PARAMETER GHB CELLS FROM LAST STRESS PERIOD

      2 GHB CELLS

 REUSING STREAM SEGMENT DATA FROM LAST STRESS PERIOD



            AREAL INFILTRATION RATE
 READING ON UNIT   19 WITH FORMAT: (FREE)              

            1           2           3           4           5           6           7           8           9          10
 ........................................................................................................................
   1   1.0000E-10  2.0000E-10   0.000       0.000       0.000       0.000       0.000       0.000       0.000       0.000    
   2   2.0000E-10  1.0000E-10  2.0000E-10   0.000       0.000      8.0000E-10  8.0000E-10  5.0000E-10   0.000       0.000    
   3    0.000      5.0000E-10  1.0000E-10  1.0000E-10  8.0000E-10  8.0000E-10  5.0000E-10  5.0000E-10   0.000       0.000    
   4   8.0000E-10  5.0000E-10  1.0000E-10  1.0000E-10  1.0000E-10  1.0000E-10  1.0000E-10  1.0000E-10  2.0000E-10   0.000    
   5   8.0000E-10  5.0000E-10  1.0000E-10  1.0000E-10  1.0000E-10  1.0000E-10  1.0000E-10  1.0000E-10  1.0000E-10  1.0000E-10
   6   8.0000E-10  5.0000E-10  5.0000E-10  2.0000E-10  2.0000E-10  1.0000E-10  1.0000E-10  1.0000E-10  1.0000E-10  5.0000E-10
   7   8.0000E-10  5.0000E-10  5.0000E-10  2.0000E-10  2.0000E-10  1.0000E-10  1.0000E-10  2.0000E-10  2.0000E-10   0.000    
   8    0.000      5.0000E-10  5.0000E-10  2.0000E-10  2.0000E-10  1.0000E-10  1.0000E-10  2.0000E-10  5.0000E-10   0.000    
   9    0.000      5.0000E-10  5.0000E-10  2.0000E-10  2.0000E-10  1.0000E-10  1.0000E-10  2.0000E-10  5.0000E-10   0.000    
  10    0.000      5.0000E-10  5.0000E-10  2.0000E-10  2.0000E-10  1.0000E-10  1.0000E-10  2.0000E-10  5.0000E-10  8.0000E-10
  11    0.000      1.0000E-10  1.0000E-10  1.0000E-10  1.0000E-10  1.0000E-10  1.0000E-10  2.0000E-10  5.0000E-10   0.000    
  12   1.0000E-10  1.0000E-10  1.0000E-10  1.0000E-10  1.0000E-10  1.0000E-10  1.0000E-10  1.0000E-10  2.0000E-10   0.000    
  13   1.0000E-10  1.0000E-10  2.0000E-10  2.0000E-10  2.0000E-10  2.0000E-10  2.0000E-10  1.0000E-10  1.0000E-10   0.000    
  14    0.000      2.0000E-10  5.0000E-10  5.0000E-10  5.0000E-10  5.0000E-10  5.0000E-10  2.0000E-10  1.0000E-10   0.000    
  15    0.000       0.000      8.0000E-10  8.0000E-10  8.0000E-10  8.0000E-10   0.000       0.000       0.000       0.000    

                  ET RATE =  5.000000E-10

 USING ET EXTINCTION DEPTH FROM PREVIOUS STRESS PERIOD. CURRENT PERIOD IS:      16

 USING EXTINCTION WATER CONTENT FROM PREVIOUS STRESS PERIOD. CURRENT PERIOD IS:      16

 USING AIR ENTRY PRESSURE FROM PREVIOUS STRESS PERIOD. CURRENT PERIOD IS:      16

 USING ROOT PRESSURE HEAD FROM PREVIOUS STRESS PERIOD. CURRENT PERIOD IS:      16

 USING ROOT ACTIVITY FROM PREVIOUS STRESS PERIOD. CURRENT PERIOD IS:      16

 PROCESSING AG STRESS PERIOD DATA

 READING AG STRESS PERIOD DATA

 READING IRRIGATION WELL

 END PROCESSING AG STRESS PERIOD DATA OPTIONS
 
 SOLVING FOR HEAD 
                                                   Max.-Head-Change                         Max.-Flux-Residual
  Residual-Control   Outer-Iter.   Inner-Iter.     Column Row Layer    Maximum-Head-Change  Column Row Layer    Maximum-Flux-Residual          L2-NORM 
          0                 1           2             4   13     1       0.2656871316E-01       4   13    1         0.1538204610E+01      0.3144626559E+01
          0                 2           2             4   13     1      -0.2555355602E-02       4   13    1        -0.1521180175E+00      0.3066424561E+00
          0                 3           2             4   13     1       0.1712956328E-03       4   13    1         0.1048460252E-01      0.2073969160E-01
          0                 4           1             4   13     1      -0.6629119990E-05       4   13    1        -0.4172354293E-03      0.8007605968E-03

    ------------------------------------------------
       NWT REQUIRED            4 OUTER ITERATIONS 
       AND A TOTAL OF          7 INNER ITERATIONS.
    ------------------------------------------------

 NO OUTPUT CONTROL FOR STRESS PERIOD   16   TIME STEP    1
 
 SOLVING FOR HEAD 
                                                   Max.-Head-Change                         Max.-Flux-Residual
  Residual-Control   Outer-Iter.   Inner-Iter.     Column Row Layer    Maximum-Head-Change  Column Row Layer    Maximum-Flux-Residual          L2-NORM 
          0                 1           2             2   13     1       0.2423796413E-01       4   13    1         0.1381136083E+01      0.2941410017E+01
          0                 2           2             4   13     1      -0.2295652276E-02       4   13    1        -0.1365843308E+00      0.2872341783E+00
          0                 3           2             4   13     1       0.1538703229E-03       4   13    1         0.9412873506E-02      0.1945983160E-01
          0                 4           1             4   13     1      -0.5956108215E-05       4   13    1        -0.3746479742E-03      0.7552068326E-03

    ------------------------------------------------
       NWT REQUIRED            4 OUTER ITERATIONS 
       AND A TOTAL OF          7 INNER ITERATIONS.
    ------------------------------------------------

 NO OUTPUT CONTROL FOR STRESS PERIOD   16   TIME STEP    2
 
 SOLVING FOR HEAD 
                                                   Max.-Head-Change                         Max.-Flux-Residual
  Residual-Control   Outer-Iter.   Inner-Iter.     Column Row Layer    Maximum-Head-Change  Column Row Layer    Maximum-Flux-Residual          L2-NORM 
          0                 1           2             2   13     1       0.2225852112E-01       2   13    1         0.1263611442E+01      0.2760478369E+01
          0                 2           2             4   13     1      -0.2063377403E-02       4   13    1        -0.1226980585E+00      0.2698508003E+00
          0                 3           2             4   13     1       0.1382969370E-03       4   13    1         0.8455529724E-02      0.1831460926E-01
          0                 4           1             4   13     1      -0.5357340733E-05       4   13    1        -0.3368102962E-03      0.7126844261E-03

    ------------------------------------------------
       NWT REQUIRED            4 OUTER ITERATIONS 
       AND A TOTAL OF          7 INNER ITERATIONS.
    ------------------------------------------------

 NO OUTPUT CONTROL FOR STRESS PERIOD   16   TIME STEP    3
 
 SOLVING FOR HEAD 
                                                   Max.-Head-Change                         Max.-Flux-Residual
  Residual-Control   Outer-Iter.   Inner-Iter.     Column Row Layer    Maximum-Head-Change  Column Row Layer    Maximum-Flux-Residual          L2-NORM 
          0                 1           2             2   13     1       0.2044114491E-01       2   13    1         0.1160334487E+01      0.2599553929E+01
          0                 2           2             2   13     1      -0.1892600138E-02       4   13    1        -0.1104643971E+00      0.2545346227E+00
          0                 3           2             4   13     1       0.1245636171E-03       4   13    1         0.7613365478E-02      0.1730743279E-01
          0                 4           1             4   13     1      -0.4825116428E-05       4   13    1        -0.3032448249E-03      0.6753689295E-03

    ------------------------------------------------
       NWT REQUIRED            4 OUTER ITERATIONS 
       AND A TOTAL OF          7 INNER ITERATIONS.
    ------------------------------------------------

 NO OUTPUT CONTROL FOR STRESS PERIOD   16   TIME STEP    4
 
 SOLVING FOR HEAD 
                                                   Max.-Head-Change                         Max.-Flux-Residual
  Residual-Control   Outer-Iter.   Inner-Iter.     Column Row Layer    Maximum-Head-Change  Column Row Layer    Maximum-Flux-Residual          L2-NORM 
          0                 1           2             2   13     1       0.1877275884E-01       2   13    1         0.1065525587E+01      0.2456580107E+01
          0                 2           2             2   13     1      -0.1739362960E-02       2   13    1        -0.1014830920E+00      0.2407894738E+00
          0                 3           1             4   13     1       0.1118768459E-03       4   13    1         0.6833650051E-02      0.1640382111E-01
          0                 4           1             4   13     1      -0.4324527115E-05       4   13    1        -0.2716053405E-03      0.6418286860E-03

    ------------------------------------------------
       NWT REQUIRED            4 OUTER ITERATIONS 
       AND A TOTAL OF          6 INNER ITERATIONS.
    ------------------------------------------------

 NO OUTPUT CONTROL FOR STRESS PERIOD   16   TIME STEP    5
 
 SOLVING FOR HEAD 
                                                   Max.-Head-Change                         Max.-Flux-Residual
  Residual-Control   Outer-Iter.   Inner-Iter.     Column Row Layer    Maximum-Head-Change  Column Row Layer    Maximum-Flux-Residual          L2-NORM 
          0                 1           2             2   13     1       0.1724122053E-01       2   13    1         0.9784949667E+00      0.2329707700E+01
          0                 2           2             2   13     1      -0.1598550538E-02       2   13    1        -0.9325709828E-01      0.2286701674E+00
          0                 3           1             2   13     1       0.1016383889E-03       4   13    1         0.6148775851E-02      0.1561007071E-01
          0                 4           1             4   13     1      -0.3896188777E-05       4   13    1        -0.2445448681E-03      0.6134312268E-03

    ------------------------------------------------
       NWT REQUIRED            4 OUTER ITERATIONS 
       AND A TOTAL OF          6 INNER ITERATIONS.
    ------------------------------------------------

 NO OUTPUT CONTROL FOR STRESS PERIOD   16   TIME STEP    6
 
 SOLVING FOR HEAD 
                                                   Max.-Head-Change                         Max.-Flux-Residual
  Residual-Control   Outer-Iter.   Inner-Iter.     Column Row Layer    Maximum-Head-Change  Column Row Layer    Maximum-Flux-Residual          L2-NORM 
          0                 1           2             2   13     1       0.1583551995E-01       2   13    1         0.8986173763E+00      0.2217252420E+01
          0                 2           2             2   13     1      -0.1469128410E-02       2   13    1        -0.8569676035E-01      0.2179329279E+00
          0                 3           1             2   13     1       0.9347310683E-04       2   13    1         0.5603770031E-02      0.1490424303E-01

    ------------------------------------------------
       NWT REQUIRED            3 OUTER ITERATIONS 
       AND A TOTAL OF          5 INNER ITERATIONS.
    ------------------------------------------------

 NO OUTPUT CONTROL FOR STRESS PERIOD   16   TIME STEP    7
 
 SOLVING FOR HEAD 
                                                   Max.-Head-Change                         Max.-Flux-Residual
  Residual-Control   Outer-Iter.   Inner-Iter.     Column Row Layer    Maximum-Head-Change  Column Row Layer    Maximum-Flux-Residual          L2-NORM 
          0                 1           2             2   13     1       0.1454504825E-01       2   13    1         0.8252900658E+00      0.2117608597E+01
          0                 2           2             2   13     1      -0.1350169569E-02       2   13    1        -0.7874792146E-01      0.2084233577E+00
          0                 3           1             2   13     1       0.8597344171E-04       2   13    1         0.5153539947E-02      0.1427879811E-01

    ------------------------------------------------
       NWT REQUIRED            3 OUTER ITERATIONS 
       AND A TOTAL OF          5 INNER ITERATIONS.
    ------------------------------------------------

 NO OUTPUT CONTROL FOR STRESS PERIOD   16   TIME STEP    8
 
 SOLVING FOR HEAD 
                                                   Max.-Head-Change                         Max.-Flux-Residual
  Residual-Control   Outer-Iter.   Inner-Iter.     Column Row Layer    Maximum-Head-Change  Column Row Layer    Maximum-Flux-Residual          L2-NORM 
          0                 1           2             2   13     1       0.1336077052E-01       2   13    1         0.7579996732E+00      0.2029360276E+01
          0                 2           2             2   13     1      -0.1240902356E-02       2   13    1        -0.7236550912E-01      0.2000052666E+00
          0                 3           1             2   13     1       0.7907960703E-04       2   13    1         0.4739594932E-02      0.1372960161E-01

    ------------------------------------------------
       NWT REQUIRED            3 OUTER ITERATIONS 
       AND A TOTAL OF          5 INNER ITERATIONS.
    ------------------------------------------------

 NO OUTPUT CONTROL FOR STRESS PERIOD   16   TIME STEP    9
 
 SOLVING FOR HEAD 
                                                   Max.-Head-Change                         Max.-Flux-Residual
  Residual-Control   Outer-Iter.   Inner-Iter.     Column Row Layer    Maximum-Head-Change  Column Row Layer    Maximum-Flux-Residual          L2-NORM 
          0                 1           2             2   13     1       0.1227393104E-01       2   13    1         0.6962485821E+00      0.1951198582E+01
          0                 2           2             2   13     1      -0.1140532502E-02       2   13    1        -0.6650313325E-01      0.1925501031E+00
          0                 3           1             2   13     1       0.7274026931E-04       2   13    1         0.4359026587E-02      0.1324164061E-01

    ------------------------------------------------
       NWT REQUIRED            3 OUTER ITERATIONS 
       AND A TOTAL OF          5 INNER ITERATIONS.
    ------------------------------------------------

 NO OUTPUT CONTROL FOR STRESS PERIOD   16   TIME STEP   10
 
 SOLVING FOR HEAD 
                                                   Max.-Head-Change                         Max.-Flux-Residual
  Residual-Control   Outer-Iter.   Inner-Iter.     Column Row Layer    Maximum-Head-Change  Column Row Layer    Maximum-Flux-Residual          L2-NORM 
          0                 1           2             2   13     1       0.1127652985E-01       2   13    1         0.6395820922E+00      0.1881959458E+01
          0                 2           2             2   13     1      -0.1048348345E-02       2   13    1        -0.6111916446E-01      0.1859470412E+00
          0                 3           1             2   13     1       0.6691083409E-04       2   13    1         0.4009084651E-02      0.1280889947E-01

    ------------------------------------------------
       NWT REQUIRED            3 OUTER ITERATIONS 
       AND A TOTAL OF          5 INNER ITERATIONS.
    ------------------------------------------------

 NO OUTPUT CONTROL FOR STRESS PERIOD   16   TIME STEP   11
 
 SOLVING FOR HEAD 
                                                   Max.-Head-Change                         Max.-Flux-Residual
  Residual-Control   Outer-Iter.   Inner-Iter.     Column Row Layer    Maximum-Head-Change  Column Row Layer    Maximum-Flux-Residual          L2-NORM 
          0                 1           2             2   13     1       0.1036131489E-01       2   13    1         0.5875880786E+00      0.1820562178E+01
          0                 2           2             2   13     1      -0.9636975436E-03       2   13    1        -0.5617553443E-01      0.1800902637E+00
          0                 3           1             4    7     1       0.6272266636E-04       2   13    1         0.3687757648E-02      0.1242530128E-01

    ------------------------------------------------
       NWT REQUIRED            3 OUTER ITERATIONS 
       AND A TOTAL OF          5 INNER ITERATIONS.
    ------------------------------------------------

 NO OUTPUT CONTROL FOR STRESS PERIOD   16   TIME STEP   12
 
 SOLVING FOR HEAD 
                                                   Max.-Head-Change                         Max.-Flux-Residual
  Residual-Control   Outer-Iter.   Inner-Iter.     Column Row Layer    Maximum-Head-Change  Column Row Layer    Maximum-Flux-Residual          L2-NORM 
          0                 1           2             2   13     1       0.9521418912E-02       2   13    1         0.5398759735E+00      0.1766063879E+01
          0                 2           2             4    7     1      -0.9149092638E-03       2   13    1        -0.5163212930E-01      0.1748895813E+00
          0                 3           1             4    7     1       0.6225495169E-04       4    7    1         0.3444010149E-02      0.1208430014E-01

    ------------------------------------------------
       NWT REQUIRED            3 OUTER ITERATIONS 
       AND A TOTAL OF          5 INNER ITERATIONS.
    ------------------------------------------------

 NO OUTPUT CONTROL FOR STRESS PERIOD   16   TIME STEP   13
 
 SOLVING FOR HEAD 
                                                   Max.-Head-Change                         Max.-Flux-Residual
  Residual-Control   Outer-Iter.   Inner-Iter.     Column Row Layer    Maximum-Head-Change  Column Row Layer    Maximum-Flux-Residual          L2-NORM 
          0                 1           2             4    7     1       0.9340987382E-02       2   13    1         0.4960961333E+00      0.1717608342E+01
          0                 2           2             4    7     1      -0.9081319931E-03       4    7    1        -0.4887028963E-01      0.1702634987E+00
          0                 3           1             4    7     1       0.6179379134E-04       4    7    1         0.3418331401E-02      0.1178116303E-01

    ------------------------------------------------
       NWT REQUIRED            3 OUTER ITERATIONS 
       AND A TOTAL OF          5 INNER ITERATIONS.
    ------------------------------------------------

 NO OUTPUT CONTROL FOR STRESS PERIOD   16   TIME STEP   14
 
 SOLVING FOR HEAD 
                                                   Max.-Head-Change                         Max.-Flux-Residual
  Residual-Control   Outer-Iter.   Inner-Iter.     Column Row Layer    Maximum-Head-Change  Column Row Layer    Maximum-Flux-Residual          L2-NORM 
          0                 1           2             4    7     1       0.9272378071E-02       4    7    1         0.4853538335E+00      0.1674440454E+01
          0                 2           2             4    7     1      -0.9014617531E-03       4    7    1        -0.4850904499E-01      0.1661382363E+00
          0                 3           1             4    7     1       0.6133991389E-04       4    7    1         0.3393063289E-02      0.1150937324E-01

    ------------------------------------------------
       NWT REQUIRED            3 OUTER ITERATIONS 
       AND A TOTAL OF          5 INNER ITERATIONS.
    ------------------------------------------------

 NO OUTPUT CONTROL FOR STRESS PERIOD   16   TIME STEP   15
 
 SOLVING FOR HEAD 
                                                   Max.-Head-Change                         Max.-Flux-Residual
  Residual-Control   Outer-Iter.   Inner-Iter.     Column Row Layer    Maximum-Head-Change  Column Row Layer    Maximum-Flux-Residual          L2-NORM 
          0                 1           2             4    7     1       0.9204563854E-02       4    7    1         0.4817817883E+00      0.1635886323E+01
          0                 2           2             4    7     1      -0.8948688143E-03       4    7    1        -0.4815203196E-01      0.1624500629E+00
          0                 3           1             4    7     1       0.6089129675E-04       4    7    1         0.3368091200E-02      0.1126683833E-01

    ------------------------------------------------
       NWT REQUIRED            3 OUTER ITERATIONS 
       AND A TOTAL OF          5 INNER ITERATIONS.
    ------------------------------------------------

 NO OUTPUT CONTROL FOR STRESS PERIOD   16   TIME STEP   16
 
 SOLVING FOR HEAD 
                                                   Max.-Head-Change                         Max.-Flux-Residual
  Residual-Control   Outer-Iter.   Inner-Iter.     Column Row Layer    Maximum-Head-Change  Column Row Layer    Maximum-Flux-Residual          L2-NORM 
          0                 1           2             4    7     1       0.9137661234E-02       4    7    1         0.4782583382E+00      0.1601364298E+01
          0                 2           2             4    7     1      -0.8883645018E-03       4    7    1        -0.4779987590E-01      0.1591437343E+00
          0                 3           1             4    7     1       0.6044871004E-04       4    7    1         0.3343458818E-02      0.1104868509E-01

    ------------------------------------------------
       NWT REQUIRED            3 OUTER ITERATIONS 
       AND A TOTAL OF          5 INNER ITERATIONS.
    ------------------------------------------------

 NO OUTPUT CONTROL FOR STRESS PERIOD   16   TIME STEP   17
 
 SOLVING FOR HEAD 
                                                   Max.-Head-Change                         Max.-Flux-Residual
  Residual-Control   Outer-Iter.   Inner-Iter.     Column Row Layer    Maximum-Head-Change  Column Row Layer    Maximum-Flux-Residual          L2-NORM 
          0                 1           2             4    7     1       0.9071646976E-02       4    7    1         0.4747821529E+00      0.1570354914E+01
          0                 2           2             4    7     1      -0.8819465569E-03       4    7    1        -0.4745244380E-01      0.1561709397E+00
          0                 3           1             4    7     1       0.6001200016E-04       4    7    1         0.3319156869E-02      0.1085367195E-01

    ------------------------------------------------
       NWT REQUIRED            3 OUTER ITERATIONS 
       AND A TOTAL OF          5 INNER ITERATIONS.
    ------------------------------------------------

 NO OUTPUT CONTROL FOR STRESS PERIOD   16   TIME STEP   18
 
 SOLVING FOR HEAD 
                                                   Max.-Head-Change                         Max.-Flux-Residual
  Residual-Control   Outer-Iter.   Inner-Iter.     Column Row Layer    Maximum-Head-Change  Column Row Layer    Maximum-Flux-Residual          L2-NORM 
          0                 1           2             4    7     1       0.9006494535E-02       4    7    1         0.4713520277E+00      0.1542400262E+01
          0                 2           2             4    7     1      -0.8756123996E-03       4    7    1        -0.4710961533E-01      0.1534847528E+00
          0                 3           1             4    7     1       0.5958099210E-04       4    7    1         0.3295176956E-02      0.1067442487E-01

    ------------------------------------------------
       NWT REQUIRED            3 OUTER ITERATIONS 
       AND A TOTAL OF          5 INNER ITERATIONS.
    ------------------------------------------------

 NO OUTPUT CONTROL FOR STRESS PERIOD   16   TIME STEP   19
 
 SOLVING FOR HEAD 
                                                   Max.-Head-Change                         Max.-Flux-Residual
  Residual-Control   Outer-Iter.   Inner-Iter.     Column Row Layer    Maximum-Head-Change  Column Row Layer    Maximum-Flux-Residual          L2-NORM 
          0                 1           2             4    7     1       0.8942183130E-02       4    7    1         0.4679665861E+00      0.1517100261E+01
          0                 2           2             4    7     1      -0.8693600091E-03       4    7    1        -0.4677125286E-01      0.1510507657E+00
          0                 3           1             4    7     1       0.5915554752E-04       4    7    1         0.3271509417E-02      0.1051292755E-01

    ------------------------------------------------
       NWT REQUIRED            3 OUTER ITERATIONS 
       AND A TOTAL OF          5 INNER ITERATIONS.
    ------------------------------------------------

 NO OUTPUT CONTROL FOR STRESS PERIOD   16   TIME STEP   20
 
 SOLVING FOR HEAD 
                                                   Max.-Head-Change                         Max.-Flux-Residual
  Residual-Control   Outer-Iter.   Inner-Iter.     Column Row Layer    Maximum-Head-Change  Column Row Layer    Maximum-Flux-Residual          L2-NORM 
          0                 1           2             4    7     1       0.8878824242E-02       4    7    1         0.4646321227E+00      0.1494128236E+01
          0                 2           2             4    7     1      -0.8632002238E-03       4    7    1        -0.4643798555E-01      0.1488367487E+00
          0                 3           1             4    7     1       0.5873640448E-04       4    7    1         0.3248198276E-02      0.1036622518E-01

    ------------------------------------------------
       NWT REQUIRED            3 OUTER ITERATIONS 
       AND A TOTAL OF          5 INNER ITERATIONS.
    ------------------------------------------------

 NO OUTPUT CONTROL FOR STRESS PERIOD   16   TIME STEP   21
 
 SOLVING FOR HEAD 
                                                   Max.-Head-Change                         Max.-Flux-Residual
  Residual-Control   Outer-Iter.   Inner-Iter.     Column Row Layer    Maximum-Head-Change  Column Row Layer    Maximum-Flux-Residual          L2-NORM 
          0                 1           2             4    7     1       0.8816119310E-02       4    7    1         0.4613323020E+00      0.1473167935E+01
          0                 2           2             4    7     1      -0.8571040168E-03       4    7    1        -0.4610818068E-01      0.1468117117E+00
          0                 3           1             4    7     1       0.5832158735E-04       4    7    1         0.3225129326E-02      0.1023010240E-01

    ------------------------------------------------
       NWT REQUIRED            3 OUTER ITERATIONS 
       AND A TOTAL OF          5 INNER ITERATIONS.
    ------------------------------------------------

 NO OUTPUT CONTROL FOR STRESS PERIOD   16   TIME STEP   22
 
 SOLVING FOR HEAD 
                                                   Max.-Head-Change                         Max.-Flux-Residual
  Residual-Control   Outer-Iter.   Inner-Iter.     Column Row Layer    Maximum-Head-Change  Column Row Layer    Maximum-Flux-Residual          L2-NORM 
          0                 1           2             4    7     1       0.8754194019E-02       4    7    1         0.4580737596E+00      0.1453974330E+01
          0                 2           2             4    7     1      -0.8510836067E-03       4    7    1        -0.4578250141E-01      0.1449552120E+00
          0                 3           1             4    7     1       0.5791192769E-04       4    7    1         0.3202348928E-02      0.1010630974E-01

    ------------------------------------------------
       NWT REQUIRED            3 OUTER ITERATIONS 
       AND A TOTAL OF          5 INNER ITERATIONS.
    ------------------------------------------------

 NO OUTPUT CONTROL FOR STRESS PERIOD   16   TIME STEP   23
 
 SOLVING FOR HEAD 
                                                   Max.-Head-Change                         Max.-Flux-Residual
  Residual-Control   Outer-Iter.   Inner-Iter.     Column Row Layer    Maximum-Head-Change  Column Row Layer    Maximum-Flux-Residual          L2-NORM 
          0                 1           2             4    7     1       0.8693157121E-02       4    7    1         0.4548630126E+00      0.1436313447E+01
          0                 2           2             4    7     1      -0.8451495688E-03       4    7    1        -0.4546159925E-01      0.1432772297E+00
          0                 3           1             4    7     1       0.5750814569E-04       4    7    1         0.3179902714E-02      0.9993777180E-02

    ------------------------------------------------
       NWT REQUIRED            3 OUTER ITERATIONS 
       AND A TOTAL OF          5 INNER ITERATIONS.
    ------------------------------------------------

 NO OUTPUT CONTROL FOR STRESS PERIOD   16   TIME STEP   24
 
 SOLVING FOR HEAD 
                                                   Max.-Head-Change                         Max.-Flux-Residual
  Residual-Control   Outer-Iter.   Inner-Iter.     Column Row Layer    Maximum-Head-Change  Column Row Layer    Maximum-Flux-Residual          L2-NORM 
          0                 1           2             4    7     1       0.8632717751E-02       4    7    1         0.4516835825E+00      0.1419971291E+01
          0                 2           2             4    7     1      -0.8392736228E-03       4    7    1        -0.4514382709E-01      0.1416545663E+00
          0                 3           1             4    7     1       0.5710831685E-04       4    7    1         0.3157675436E-02      0.9884201528E-02

    ------------------------------------------------
       NWT REQUIRED            3 OUTER ITERATIONS 
       AND A TOTAL OF          5 INNER ITERATIONS.
    ------------------------------------------------

 NO OUTPUT CONTROL FOR STRESS PERIOD   16   TIME STEP   25
 
 SOLVING FOR HEAD 
                                                   Max.-Head-Change                         Max.-Flux-Residual
  Residual-Control   Outer-Iter.   Inner-Iter.     Column Row Layer    Maximum-Head-Change  Column Row Layer    Maximum-Flux-Residual          L2-NORM 
          0                 1           2             4    7     1       0.8573133642E-02       4    7    1         0.4485498781E+00      0.1404796685E+01
          0                 2           2             4    7     1      -0.8334808264E-03       4    7    1        -0.4483062512E-01      0.1401777616E+00
          0                 3           1             4    7     1       0.5671414509E-04       4    7    1         0.3135767796E-02      0.9784542749E-02

    ------------------------------------------------
       NWT REQUIRED            3 OUTER ITERATIONS 
       AND A TOTAL OF          5 INNER ITERATIONS.
    ------------------------------------------------

 NO OUTPUT CONTROL FOR STRESS PERIOD   16   TIME STEP   26
 
 SOLVING FOR HEAD 
                                                   Max.-Head-Change                         Max.-Flux-Residual
  Residual-Control   Outer-Iter.   Inner-Iter.     Column Row Layer    Maximum-Head-Change  Column Row Layer    Maximum-Flux-Residual          L2-NORM 
          0                 1           2             4    7     1       0.8514249945E-02       4    7    1         0.4454531452E+00      0.1390658402E+01
          0                 2           2             4    7     1      -0.8277561249E-03       4    7    1        -0.4452111831E-01      0.1387983288E+00
          0                 3           1             4    7     1       0.5632460775E-04       4    7    1         0.3114118654E-02      0.9691062324E-02

    ------------------------------------------------
       NWT REQUIRED            3 OUTER ITERATIONS 
       AND A TOTAL OF          5 INNER ITERATIONS.
    ------------------------------------------------

 NO OUTPUT CONTROL FOR STRESS PERIOD   16   TIME STEP   27
 
 SOLVING FOR HEAD 
                                                   Max.-Head-Change                         Max.-Flux-Residual
  Residual-Control   Outer-Iter.   Inner-Iter.     Column Row Layer    Maximum-Head-Change  Column Row Layer    Maximum-Flux-Residual          L2-NORM 
          0                 1           2             4    7     1       0.8455911204E-02       4    7    1         0.4423853547E+00      0.1377427453E+01
          0                 2           2             4    7     1      -0.8220844046E-03       4    7    1        -0.4421450422E-01      0.1375053600E+00
          0                 3           1             4    7     1       0.5593867494E-04       4    7    1         0.3092671843E-02      0.9602844861E-02

    ------------------------------------------------
       NWT REQUIRED            3 OUTER ITERATIONS 
       AND A TOTAL OF          5 INNER ITERATIONS.
    ------------------------------------------------

 NO OUTPUT CONTROL FOR STRESS PERIOD   16   TIME STEP   28
 
 SOLVING FOR HEAD 
                                                   Max.-Head-Change                         Max.-Flux-Residual
  Residual-Control   Outer-Iter.   Inner-Iter.     Column Row Layer    Maximum-Head-Change  Column Row Layer    Maximum-Flux-Residual          L2-NORM 
          0                 1           2             4    7     1       0.8398380547E-02       4    7    1         0.4393605647E+00      0.1365008852E+01
          0                 2           2             4    7     1      -0.8164912476E-03       4    7    1        -0.4391218792E-01      0.1362902292E+00
          0                 3           1             4    7     1       0.5555808846E-04       4    7    1         0.3071525666E-02      0.9520802919E-02

    ------------------------------------------------
       NWT REQUIRED            3 OUTER ITERATIONS 
       AND A TOTAL OF          5 INNER ITERATIONS.
    ------------------------------------------------

 NO OUTPUT CONTROL FOR STRESS PERIOD   16   TIME STEP   29
 
 SOLVING FOR HEAD 
                                                   Max.-Head-Change                         Max.-Flux-Residual
  Residual-Control   Outer-Iter.   Inner-Iter.     Column Row Layer    Maximum-Head-Change  Column Row Layer    Maximum-Flux-Residual          L2-NORM 
          0                 1           2             4    7     1       0.8341590579E-02       4    7    1         0.4363776727E+00      0.1310340040E+01
          0                 2           2             4    7     1      -0.8109701039E-03       4    7    1        -0.4361405938E-01      0.1309757362E+00
          0                 3           1             4    7     1       0.5518240207E-04       4    7    1         0.3050672402E-02      0.9162819278E-02

    ------------------------------------------------
       NWT REQUIRED            3 OUTER ITERATIONS 
       AND A TOTAL OF          5 INNER ITERATIONS.
    ------------------------------------------------

 NO OUTPUT CONTROL FOR STRESS PERIOD   16   TIME STEP   30



 STREAM LISTING     PERIOD     16   STEP       30

 LAYER ROW COL. STREAM  RCH.  FLOW INTO     FLOW TO   FLOW OUT OF   OVRLND.     DIRECT     STREAM       STREAM     STREAM     STREAM   STREAMBED  STREAMBED
                SEG.NO.  NO.  STRM. RCH.    AQUIFER    STRM. RCH.    RUNOFF     PRECIP       ET          HEAD       DEPTH      WIDTH   CONDCTNC.   GRADIENT

   1    1    1     1     1    8.8455E+01  4.5169E-01   8.8003E+01  0.000E+00  0.000E+00  0.000E+00  1.09480E+03  1.756E+00  2.111E+01  9.498E-02  1.585E+00
   1    2    2     1     2    8.8003E+01  7.0076E-01   8.7302E+01  0.000E+00  0.000E+00  0.000E+00  1.08981E+03  1.753E+00  2.106E+01  1.474E-01  1.584E+00
   1    3    3     1     3    8.7302E+01  5.9885E-01   8.6704E+01  0.000E+00  0.000E+00  0.000E+00  1.08417E+03  1.751E+00  2.101E+01  1.260E-01  1.584E+00
   1    3    4     1     4    8.6704E+01  5.5245E-01   8.6151E+01  0.000E+00  0.000E+00  0.000E+00  1.07916E+03  1.749E+00  2.096E+01  1.163E-01  1.583E+00
   1    4    5     2     1    8.4151E+01  4.2881E-01   8.3722E+01  0.000E+00  0.000E+00  0.000E+00  1.07443E+03  2.498E+00  1.200E+01  7.800E-02  1.833E+00
   1    5    6     2     2    8.3722E+01  3.2945E-01   8.3393E+01  0.000E+00  0.000E+00  0.000E+00  1.06900E+03  2.491E+00  1.200E+01  6.000E-02  1.830E+00
   1    6    6     2     3    8.3393E+01  3.2909E-01   8.3064E+01  0.000E+00  0.000E+00  0.000E+00  1.06428E+03  2.485E+00  1.200E+01  6.000E-02  1.828E+00
   1    7    6     2     4    8.3064E+01  3.2874E-01   8.2735E+01  0.000E+00  0.000E+00  0.000E+00  1.05955E+03  2.479E+00  1.200E+01  6.000E-02  1.826E+00
   1    8    6     2     5    8.2735E+01  3.2839E-01   8.2407E+01  0.000E+00  0.000E+00  0.000E+00  1.05483E+03  2.473E+00  1.200E+01  6.000E-02  1.824E+00
   1    3    5     3     1    2.0000E+00  2.8252E-01   1.7175E+00  0.000E+00  0.000E+00  0.000E+00  1.07555E+03  1.909E+00  9.636E+00  7.227E-02  1.955E+00
   1    3    6     3     2    1.7175E+00  2.4905E-01   1.4684E+00  0.000E+00  0.000E+00  0.000E+00  1.07264E+03  1.727E+00  8.909E+00  6.682E-02  1.864E+00
   1    3    7     3     3    1.4684E+00  1.9718E-01   1.2712E+00  0.000E+00  0.000E+00  0.000E+00  1.06987E+03  1.555E+00  8.218E+00  5.547E-02  1.777E+00
   1    4    8     3     4    1.2712E+00  2.2567E-01   1.0456E+00  0.000E+00  0.000E+00  0.000E+00  1.06682E+03  1.364E+00  7.455E+00  6.709E-02  1.682E+00
   1    5    8     3     5    1.0456E+00  1.5790E-01   8.8768E-01  0.000E+00  0.000E+00  0.000E+00  1.06362E+03  1.164E+00  6.655E+00  4.991E-02  1.582E+00
   1    6    8     3     6    8.8768E-01  5.5980E-02   8.3170E-01  0.000E+00  0.000E+00  0.000E+00  1.06158E+03  1.036E+00  6.145E+00  1.844E-02  1.518E+00
   1    5   10     4     1    1.0000E+01  9.0919E-02   9.9091E+00  0.000E+00  0.000E+00  0.000E+00  1.07836E+03  6.368E-01  1.000E+01  2.500E-02  1.212E+00
   1    5    9     4     2    9.9091E+00  1.8158E-01   9.7275E+00  0.000E+00  0.000E+00  0.000E+00  1.07154E+03  6.315E-01  1.000E+01  5.000E-02  1.211E+00
   1    6    8     4     3    9.7275E+00  1.2689E-01   9.6006E+00  0.000E+00  0.000E+00  0.000E+00  1.06381E+03  6.256E-01  1.000E+01  3.500E-02  1.209E+00
   1    6    8     5     1    1.0432E+01  2.2686E-01   1.0205E+01  0.000E+00  0.000E+00  0.000E+00  1.05868E+03  6.790E-01  1.542E+01  6.166E-02  1.226E+00
   1    7    7     5     2    1.0205E+01  2.7894E-01   9.9265E+00  0.000E+00  0.000E+00  0.000E+00  1.05417E+03  6.732E-01  1.519E+01  7.594E-02  1.224E+00
   1    8    7     5     3    9.9265E+00  1.9221E-01   9.7343E+00  0.000E+00  0.000E+00  0.000E+00  1.04992E+03  6.676E-01  1.497E+01  5.241E-02  1.223E+00
   1    8    6     5     4    9.7343E+00  1.3577E-01   9.5985E+00  0.000E+00  0.000E+00  0.000E+00  1.04691E+03  6.637E-01  1.482E+01  3.706E-02  1.221E+00
   1    9    6     6     1    9.2005E+01  3.3993E-01   9.1665E+01  0.000E+00  0.000E+00  0.000E+00  1.04539E+03  2.665E+00  1.200E+01  6.000E-02  1.888E+00
   1   10    7     6     2    9.1665E+01  3.3957E-01   9.1326E+01  0.000E+00  0.000E+00  0.000E+00  1.04084E+03  2.660E+00  1.200E+01  6.000E-02  1.887E+00
   1   11    7     6     3    9.1326E+01  3.3922E-01   9.0986E+01  0.000E+00  0.000E+00  0.000E+00  1.03629E+03  2.654E+00  1.200E+01  6.000E-02  1.885E+00
   1   12    7     6     4    9.0986E+01  3.3886E-01   9.0648E+01  0.000E+00  0.000E+00  0.000E+00  1.03174E+03  2.648E+00  1.200E+01  6.000E-02  1.883E+00
   1   13    7     6     5    9.0648E+01  3.4508E-02   9.0613E+01  0.000E+00  0.000E+00  0.000E+00  1.02855E+03  2.644E+00  1.200E+01  2.400E-02  4.793E-01
   1   14    9     7     1    1.5000E+02  1.3299E+00   1.4867E+02  0.000E+00  0.000E+00  0.000E+00  1.03987E+03  2.288E+00  5.529E+01  5.593E-01  7.926E-01
   1   13    8     7     2    1.4867E+02  1.8179E+00   1.4685E+02  0.000E+00  0.000E+00  0.000E+00  1.03478E+03  2.279E+00  5.526E+01  6.148E-01  9.857E-01
   1   13    7     7     3    1.4685E+02  1.4377E+00   1.4541E+02  0.000E+00  0.000E+00  0.000E+00  1.02969E+03  2.271E+00  5.522E+01  5.585E-01  8.581E-01
   1   13    6     8     1    2.3603E+02  1.1627E+00   2.3486E+02  0.000E+00  0.000E+00  0.000E+00  1.02521E+03  3.336E+00  4.837E+01  4.929E-01  7.863E-01
   1   13    5     8     2    2.3486E+02  3.2265E-01   2.3454E+02  0.000E+00  0.000E+00  0.000E+00  1.01896E+03  3.332E+00  4.831E+01  4.923E-01  2.185E-01
   1   13    4     8     3    2.3454E+02 -2.2113E+00   2.3675E+02  0.000E+00  0.000E+00  0.000E+00  1.01271E+03  3.337E+00  4.838E+01  4.930E+00 -1.495E-01
   1   13    3     8     4    2.3675E+02 -3.5801E+00   2.4033E+02  0.000E+00  0.000E+00  0.000E+00  1.00648E+03  3.352E+00  4.861E+01  4.953E+00 -2.409E-01
   1   13    2     8     5    2.4033E+02 -2.5573E+00   2.4289E+02  0.000E+00  0.000E+00  0.000E+00  1.00024E+03  3.368E+00  4.884E+01  4.977E+00 -1.713E-01
   1   13    1     8     6    2.4289E+02 -1.8857E+00   2.4478E+02  0.000E+00  0.000E+00  0.000E+00  9.95255E+02  3.380E+00  4.901E+01  2.996E+00 -2.098E-01





UNSATURATED ZONE PACKAGE VOLUMETRIC BUDGET FOR  TIME STEP    30 STRESS PERIOD   16
  ------------------------------------------------------------------------------



     CUMULATIVE VOLUMES      L**3       RATES FOR THIS TIME STEP      L**3/T
     ------------------                 ------------------------

           IN:                                      IN:
           ---                                      ---
        INFILTRATION =   468549591.7147          INFILTRATION =           0.8475

          OUT:                                     OUT:
          ----                                     ----
              UZF ET =   429266756.8646                UZF ET =           0.7500
        UZF RECHARGE =    37930890.8416          UZF RECHARGE =           0.0001

            IN - OUT =     1351944.0085              IN - OUT =       9.7389E-02

          STORAGE:                                 STORAGE:
          --------                                 --------
      STORAGE CHANGE =     1351946.0400        STORAGE CHANGE =       9.7389E-02

 PERCENT DISCREPANCY IS DIFFERENCE BETWEEN IN-OUT MINUS CHANGE IN STORAGE
 DIVIDED BY THE AVERAGE OF IN AND OUT TIMES 100

 PERCENT DISCREPANCY =           0.00     PERCENT DISCREPANCY =           0.00






1
  VOLUMETRIC BUDGET FOR AGRICULTURAL FIELDS AT  END OF TIME STEP   30, STRESS PERIOD  16
  ------------------------------------------------------------------------------

     CUMULATIVE VOLUMES      L**3       RATES FOR THIS TIME STEP      L**3/T
     ------------------                 ------------------------

           IN:                                      IN:
           ---                                      ---
               AG WELLS  =   435042048.0000                 AG WELLS  =           0.0000
      DIVERSION SEGMENTS =           0.0000        DIVERSION SEGMENTS =           0.0000
           GW IRRIGATION =           0.0000             GW IRRIGATION =           0.0000
           SW IRRIGATION =           0.0000             SW IRRIGATION =           0.0000
        SYSTEM LOSSES GW =           0.0000          SYSTEM LOSSES GW =           0.0000
        SYSTEM LOSSES SW =           0.0000          SYSTEM LOSSES SW =           0.0000

                TOTAL IN =   435042048.0000                  TOTAL IN =           0.0000

          OUT:                                     OUT:
          ----                                     ----
               AG WELLS  =           0.0000                 AG WELLS  =           0.0000
      DIVERSION SEGMENTS =           0.0000        DIVERSION SEGMENTS =           0.0000
           GW IRRIGATION =   435042048.0000             GW IRRIGATION =           0.0000
           SW IRRIGATION =           0.0000             SW IRRIGATION =           0.0000
        SYSTEM LOSSES GW =           0.0000          SYSTEM LOSSES GW =           0.0000
        SYSTEM LOSSES SW =           0.0000          SYSTEM LOSSES SW =           0.0000

               TOTAL OUT =   435042048.0000                 TOTAL OUT =           0.0000

                IN - OUT =           0.0000                  IN - OUT =           0.0000

     PERCENT DISCREPANCY =           0.00         PERCENT DISCREPANCY =           0.00



1
  VOLUMETRIC BUDGET FOR ENTIRE MODEL AT END OF TIME STEP   30, STRESS PERIOD  16
  ------------------------------------------------------------------------------

     CUMULATIVE VOLUMES      L**3       RATES FOR THIS TIME STEP      L**3/T
     ------------------                 ------------------------

           IN:                                      IN:
           ---                                      ---
             STORAGE     =   597463808.0000               STORAGE     =           2.7580
       CONSTANT HEAD     =           0.0000         CONSTANT HEAD     =           0.0000
     HEAD DEP BOUNDS     =    11284206.0000       HEAD DEP BOUNDS     =           0.2854
      STREAM LEAKAGE     =   491950176.0000        STREAM LEAKAGE     =          13.9127
        UZF RECHARGE     =    37930912.0000          UZF RECHARGE     =       1.1087E-04
               GW ET     =           0.0000                 GW ET     =           0.0000
     SURFACE LEAKAGE     =           0.0000       SURFACE LEAKAGE     =           0.0000
           AG WELLS      =           0.0000             AG WELLS      =           0.0000

                TOTAL IN =  1138629120.0000                  TOTAL IN =          16.9561

          OUT:                                     OUT:
          ----                                     ----
             STORAGE     =   271254624.0000               STORAGE     =           6.4177
       CONSTANT HEAD     =           0.0000         CONSTANT HEAD     =           0.0000
     HEAD DEP BOUNDS     =    11629939.0000       HEAD DEP BOUNDS     =           0.2996
      STREAM LEAKAGE     =   406938048.0000        STREAM LEAKAGE     =          10.2345
        UZF RECHARGE     =           0.0000          UZF RECHARGE     =           0.0000
               GW ET     =    13767554.0000                 GW ET     =       5.4025E-03
     SURFACE LEAKAGE     =           0.0000       SURFACE LEAKAGE     =           0.0000
           AG WELLS      =   435042048.0000             AG WELLS      =           0.0000

               TOTAL OUT =  1138632192.0000                 TOTAL OUT =          16.9572

                IN - OUT =       -3072.0000                  IN - OUT =      -1.0433E-03

     PERCENT DISCREPANCY =          -0.00         PERCENT DISCREPANCY =          -0.01






         TIME SUMMARY AT END OF TIME STEP   30 IN STRESS PERIOD   16
                    SECONDS     MINUTES      HOURS       DAYS        YEARS
                    -----------------------------------------------------------
   TIME STEP LENGTH  87667.      1461.1      24.352      1.0147     2.77799E-03
 STRESS PERIOD TIME 2.63000E+06  43833.      730.56      30.440     8.33397E-02
         TOTAL TIME 3.95364E+07 6.58940E+05  10982.      457.60      1.2528    
1
1
                            STRESS PERIOD NO.   17, LENGTH =   2630000.    
                            -----------------------------------------------

                              NUMBER OF TIME STEPS =    30

                               MULTIPLIER FOR DELT =     1.000

                            INITIAL TIME STEP SIZE =   87666.66    

 REUSING NON-PARAMETER GHB CELLS FROM LAST STRESS PERIOD

      2 GHB CELLS

 REUSING STREAM SEGMENT DATA FROM LAST STRESS PERIOD



            AREAL INFILTRATION RATE
 READING ON UNIT   19 WITH FORMAT: (FREE)              

            1           2           3           4           5           6           7           8           9          10
 ........................................................................................................................
   1   1.0000E-10  2.0000E-10   0.000       0.000       0.000       0.000       0.000       0.000       0.000       0.000    
   2   2.0000E-10  1.0000E-10  2.0000E-10   0.000       0.000      8.0000E-10  8.0000E-10  5.0000E-10   0.000       0.000    
   3    0.000      5.0000E-10  1.0000E-10  1.0000E-10  8.0000E-10  8.0000E-10  5.0000E-10  5.0000E-10   0.000       0.000    
   4   8.0000E-10  5.0000E-10  1.0000E-10  1.0000E-10  1.0000E-10  1.0000E-10  1.0000E-10  1.0000E-10  2.0000E-10   0.000    
   5   8.0000E-10  5.0000E-10  1.0000E-10  1.0000E-10  1.0000E-10  1.0000E-10  1.0000E-10  1.0000E-10  1.0000E-10  1.0000E-10
   6   8.0000E-10  5.0000E-10  5.0000E-10  2.0000E-10  2.0000E-10  1.0000E-10  1.0000E-10  1.0000E-10  1.0000E-10  5.0000E-10
   7   8.0000E-10  5.0000E-10  5.0000E-10  2.0000E-10  2.0000E-10  1.0000E-10  1.0000E-10  2.0000E-10  2.0000E-10   0.000    
   8    0.000      5.0000E-10  5.0000E-10  2.0000E-10  2.0000E-10  1.0000E-10  1.0000E-10  2.0000E-10  5.0000E-10   0.000    
   9    0.000      5.0000E-10  5.0000E-10  2.0000E-10  2.0000E-10  1.0000E-10  1.0000E-10  2.0000E-10  5.0000E-10   0.000    
  10    0.000      5.0000E-10  5.0000E-10  2.0000E-10  2.0000E-10  1.0000E-10  1.0000E-10  2.0000E-10  5.0000E-10  8.0000E-10
  11    0.000      1.0000E-10  1.0000E-10  1.0000E-10  1.0000E-10  1.0000E-10  1.0000E-10  2.0000E-10  5.0000E-10   0.000    
  12   1.0000E-10  1.0000E-10  1.0000E-10  1.0000E-10  1.0000E-10  1.0000E-10  1.0000E-10  1.0000E-10  2.0000E-10   0.000    
  13   1.0000E-10  1.0000E-10  2.0000E-10  2.0000E-10  2.0000E-10  2.0000E-10  2.0000E-10  1.0000E-10  1.0000E-10   0.000    
  14    0.000      2.0000E-10  5.0000E-10  5.0000E-10  5.0000E-10  5.0000E-10  5.0000E-10  2.0000E-10  1.0000E-10   0.000    
  15    0.000       0.000      8.0000E-10  8.0000E-10  8.0000E-10  8.0000E-10   0.000       0.000       0.000       0.000    

                  ET RATE =  2.500000E-08

 USING ET EXTINCTION DEPTH FROM PREVIOUS STRESS PERIOD. CURRENT PERIOD IS:      17

 USING EXTINCTION WATER CONTENT FROM PREVIOUS STRESS PERIOD. CURRENT PERIOD IS:      17

 USING AIR ENTRY PRESSURE FROM PREVIOUS STRESS PERIOD. CURRENT PERIOD IS:      17

 USING ROOT PRESSURE HEAD FROM PREVIOUS STRESS PERIOD. CURRENT PERIOD IS:      17

 USING ROOT ACTIVITY FROM PREVIOUS STRESS PERIOD. CURRENT PERIOD IS:      17

 PROCESSING AG STRESS PERIOD DATA

 READING AG STRESS PERIOD DATA

 READING IRRIGATION WELL

 END PROCESSING AG STRESS PERIOD DATA OPTIONS
 
 SOLVING FOR HEAD 
                                                   Max.-Head-Change                         Max.-Flux-Residual
  Residual-Control   Outer-Iter.   Inner-Iter.     Column Row Layer    Maximum-Head-Change  Column Row Layer    Maximum-Flux-Residual          L2-NORM 
          0                 1           2             4   13     1      -0.9978011834E-02       4   13    1        -0.5891849261E+00      0.1387423241E+01
          0                 2           2             4   13     1       0.9617844303E-03       4   13    1         0.5839405618E-01      0.1373398453E+00
          0                 3           1             4   13     1      -0.6466542139E-04       4   13    1        -0.4036854564E-02      0.9486390311E-02

    ------------------------------------------------
       NWT REQUIRED            3 OUTER ITERATIONS 
       AND A TOTAL OF          5 INNER ITERATIONS.
    ------------------------------------------------

 NO OUTPUT CONTROL FOR STRESS PERIOD   17   TIME STEP    1
 
 SOLVING FOR HEAD 
                                                   Max.-Head-Change                         Max.-Flux-Residual
  Residual-Control   Outer-Iter.   Inner-Iter.     Column Row Layer    Maximum-Head-Change  Column Row Layer    Maximum-Flux-Residual          L2-NORM 
          0                 1           2             3   13     1      -0.8803055774E-02       4   13    1        -0.5185721292E+00      0.1302777957E+01
          0                 2           2             4   13     1       0.8466495038E-03       4   13    1         0.5139303941E-01      0.1290711901E+00
          0                 3           1             4   13     1      -0.5692706358E-04       4   13    1        -0.3553043949E-02      0.8925399664E-02

    ------------------------------------------------
       NWT REQUIRED            3 OUTER ITERATIONS 
       AND A TOTAL OF          5 INNER ITERATIONS.
    ------------------------------------------------

 NO OUTPUT CONTROL FOR STRESS PERIOD   17   TIME STEP    2
 
 SOLVING FOR HEAD 
                                                   Max.-Head-Change                         Max.-Flux-Residual
  Residual-Control   Outer-Iter.   Inner-Iter.     Column Row Layer    Maximum-Head-Change  Column Row Layer    Maximum-Flux-Residual          L2-NORM 
          0                 1           2             3   13     1      -0.7849947766E-02       3   13    1        -0.4580304575E+00      0.1228510082E+01
          0                 2           2             4   13     1       0.7454494763E-03       4   13    1         0.4524044388E-01      0.1218159817E+00
          0                 3           1             4   13     1      -0.5010259571E-04       4   13    1        -0.3126434963E-02      0.8432776706E-02

    ------------------------------------------------
       NWT REQUIRED            3 OUTER ITERATIONS 
       AND A TOTAL OF          5 INNER ITERATIONS.
    ------------------------------------------------

 NO OUTPUT CONTROL FOR STRESS PERIOD   17   TIME STEP    3
 
 SOLVING FOR HEAD 
                                                   Max.-Head-Change                         Max.-Flux-Residual
  Residual-Control   Outer-Iter.   Inner-Iter.     Column Row Layer    Maximum-Head-Change  Column Row Layer    Maximum-Flux-Residual          L2-NORM 
          0                 1           2             3   13     1      -0.7000394137E-02       3   13    1        -0.4084348144E+00      0.1163206831E+01
          0                 2           2             3   13     1       0.6643369054E-03       3   13    1         0.3985057023E-01      0.1154381340E+00
          0                 3           1             4   13     1      -0.4414889839E-04       4   13    1        -0.2754322439E-02      0.8000991572E-02

    ------------------------------------------------
       NWT REQUIRED            3 OUTER ITERATIONS 
       AND A TOTAL OF          5 INNER ITERATIONS.
    ------------------------------------------------

 NO OUTPUT CONTROL FOR STRESS PERIOD   17   TIME STEP    4
 
 SOLVING FOR HEAD 
                                                   Max.-Head-Change                         Max.-Flux-Residual
  Residual-Control   Outer-Iter.   Inner-Iter.     Column Row Layer    Maximum-Head-Change  Column Row Layer    Maximum-Flux-Residual          L2-NORM 
          0                 1           2             3    7     1       0.6364461198E-02       3   13    1        -0.3642260151E+00      0.1105712175E+01
          0                 2           2             3    7     1      -0.6190881902E-03       3   13    1         0.3554247077E-01      0.1098702139E+00
          0                 3           1             3    7     1       0.4215767243E-04       4   13    1        -0.2425116824E-02      0.7622682192E-02

    ------------------------------------------------
       NWT REQUIRED            3 OUTER ITERATIONS 
       AND A TOTAL OF          5 INNER ITERATIONS.
    ------------------------------------------------

 NO OUTPUT CONTROL FOR STRESS PERIOD   17   TIME STEP    5
 
 SOLVING FOR HEAD 
                                                   Max.-Head-Change                         Max.-Flux-Residual
  Residual-Control   Outer-Iter.   Inner-Iter.     Column Row Layer    Maximum-Head-Change  Column Row Layer    Maximum-Flux-Residual          L2-NORM 
          0                 1           2             3    7     1       0.6230131389E-02       3   13    1        -0.3248264804E+00      0.1054815400E+01
          0                 2           2             3    7     1      -0.6060215636E-03       3   13    1         0.3170203158E-01      0.1048436559E+00
          0                 3           1             3    7     1       0.4126787950E-04       3   13    1        -0.2144313840E-02      0.7282008966E-02

    ------------------------------------------------
       NWT REQUIRED            3 OUTER ITERATIONS 
       AND A TOTAL OF          5 INNER ITERATIONS.
    ------------------------------------------------

 NO OUTPUT CONTROL FOR STRESS PERIOD   17   TIME STEP    6
 
 SOLVING FOR HEAD 
                                                   Max.-Head-Change                         Max.-Flux-Residual
  Residual-Control   Outer-Iter.   Inner-Iter.     Column Row Layer    Maximum-Head-Change  Column Row Layer    Maximum-Flux-Residual          L2-NORM 
          0                 1           2             3    7     1       0.6098008647E-02       3   13    1        -0.2897028909E+00      0.1009730664E+01
          0                 2           2             3    7     1      -0.5931696259E-03       3   13    1         0.2827679060E-01      0.1004320718E+00
          0                 3           1             3    7     1       0.4039270659E-04       3   13    1        -0.1912504537E-02      0.6980956288E-02

    ------------------------------------------------
       NWT REQUIRED            3 OUTER ITERATIONS 
       AND A TOTAL OF          5 INNER ITERATIONS.
    ------------------------------------------------

 NO OUTPUT CONTROL FOR STRESS PERIOD   17   TIME STEP    7
 
 SOLVING FOR HEAD 
                                                   Max.-Head-Change                         Max.-Flux-Residual
  Residual-Control   Outer-Iter.   Inner-Iter.     Column Row Layer    Maximum-Head-Change  Column Row Layer    Maximum-Flux-Residual          L2-NORM 
          0                 1           2             3    7     1       0.5968577128E-02       3   13    1        -0.2583963412E+00      0.9696185101E+00
          0                 2           2             3    7     1      -0.5805794704E-03       3   13    1         0.2522471792E-01      0.9650485851E-01
          0                 3           1             3    7     1       0.3953535980E-04       3   13    1        -0.1706510934E-02      0.6714077580E-02

    ------------------------------------------------
       NWT REQUIRED            3 OUTER ITERATIONS 
       AND A TOTAL OF          5 INNER ITERATIONS.
    ------------------------------------------------

 NO OUTPUT CONTROL FOR STRESS PERIOD   17   TIME STEP    8
 
 SOLVING FOR HEAD 
                                                   Max.-Head-Change                         Max.-Flux-Residual
  Residual-Control   Outer-Iter.   Inner-Iter.     Column Row Layer    Maximum-Head-Change  Column Row Layer    Maximum-Flux-Residual          L2-NORM 
          0                 1           2             3    7     1       0.5841572443E-02       1    1    1         0.2353707155E+00      0.9337779056E+00
          0                 2           2             3    7     1      -0.5682253820E-03       1    1    1        -0.2353711078E-01      0.9299220491E-01
          0                 3           1             3    7     1       0.3869408903E-04       1    1    1         0.1647598114E-02      0.6474619721E-02

    ------------------------------------------------
       NWT REQUIRED            3 OUTER ITERATIONS 
       AND A TOTAL OF          5 INNER ITERATIONS.
    ------------------------------------------------

 NO OUTPUT CONTROL FOR STRESS PERIOD   17   TIME STEP    9
 
 SOLVING FOR HEAD 
                                                   Max.-Head-Change                         Max.-Flux-Residual
  Residual-Control   Outer-Iter.   Inner-Iter.     Column Row Layer    Maximum-Head-Change  Column Row Layer    Maximum-Flux-Residual          L2-NORM 
          0                 1           2             3    7     1       0.5716977017E-02       1    1    1         0.2351196154E+00      0.9016211123E+00
          0                 2           2             3    7     1      -0.5561056486E-03       1    1    1        -0.2351200062E-01      0.8983732805E-01
          0                 3           1             3    7     1       0.3786877655E-04       1    1    1         0.1645840390E-02      0.6258989074E-02

    ------------------------------------------------
       NWT REQUIRED            3 OUTER ITERATIONS 
       AND A TOTAL OF          5 INNER ITERATIONS.
    ------------------------------------------------

 NO OUTPUT CONTROL FOR STRESS PERIOD   17   TIME STEP   10
 
 SOLVING FOR HEAD 
                                                   Max.-Head-Change                         Max.-Flux-Residual
  Residual-Control   Outer-Iter.   Inner-Iter.     Column Row Layer    Maximum-Head-Change  Column Row Layer    Maximum-Flux-Residual          L2-NORM 
          0                 1           2             3    7     1       0.5594773349E-02       1    1    1         0.2348681565E+00      0.8726469520E+00
          0                 2           2             3    7     1      -0.5442185690E-03       1    1    1        -0.2348685457E-01      0.8698638606E-01
          0                 3           1             3    7     1       0.3705930829E-04       1    1    1         0.1644080167E-02      0.6059706695E-02

    ------------------------------------------------
       NWT REQUIRED            3 OUTER ITERATIONS 
       AND A TOTAL OF          5 INNER ITERATIONS.
    ------------------------------------------------

 NO OUTPUT CONTROL FOR STRESS PERIOD   17   TIME STEP   11
 
 SOLVING FOR HEAD 
                                                   Max.-Head-Change                         Max.-Flux-Residual
  Residual-Control   Outer-Iter.   Inner-Iter.     Column Row Layer    Maximum-Head-Change  Column Row Layer    Maximum-Flux-Residual          L2-NORM 
          0                 1           2             3    7     1       0.5475181555E-02       1    1    1         0.2346187458E+00      0.8464069609E+00
          0                 2           2             3    7     1      -0.5325855539E-03       1    1    1        -0.2346191332E-01      0.8441057766E-01
          0                 3           1             3    7     1       0.3626714036E-04       1    1    1         0.1642334274E-02      0.5887836008E-02

    ------------------------------------------------
       NWT REQUIRED            3 OUTER ITERATIONS 
       AND A TOTAL OF          5 INNER ITERATIONS.
    ------------------------------------------------

 NO OUTPUT CONTROL FOR STRESS PERIOD   17   TIME STEP   12
 
 SOLVING FOR HEAD 
                                                   Max.-Head-Change                         Max.-Flux-Residual
  Residual-Control   Outer-Iter.   Inner-Iter.     Column Row Layer    Maximum-Head-Change  Column Row Layer    Maximum-Flux-Residual          L2-NORM 
          0                 1           2             3    7     1       0.5357679624E-02       1    1    1         0.2343701709E+00      0.8225395811E+00
          0                 2           2             3    7     1      -0.5211558262E-03       1    1    1        -0.2343705567E-01      0.8206097494E-01
          0                 3           1             3    7     1       0.3548881593E-04       1    1    1         0.1640594245E-02      0.5726936045E-02

    ------------------------------------------------
       NWT REQUIRED            3 OUTER ITERATIONS 
       AND A TOTAL OF          5 INNER ITERATIONS.
    ------------------------------------------------

 NO OUTPUT CONTROL FOR STRESS PERIOD   17   TIME STEP   13
 
 SOLVING FOR HEAD 
                                                   Max.-Head-Change                         Max.-Flux-Residual
  Residual-Control   Outer-Iter.   Inner-Iter.     Column Row Layer    Maximum-Head-Change  Column Row Layer    Maximum-Flux-Residual          L2-NORM 
          0                 1           2             3    7     1       0.5242739348E-02       1    1    1         0.2341212227E+00      0.8007377907E+00
          0                 2           2             3    7     1      -0.5099752777E-03       1    1    1        -0.2341216069E-01      0.7991169477E-01
          0                 3           1             3    7     1       0.3472746003E-04       1    1    1         0.1638851595E-02      0.5579123781E-02

    ------------------------------------------------
       NWT REQUIRED            3 OUTER ITERATIONS 
       AND A TOTAL OF          5 INNER ITERATIONS.
    ------------------------------------------------

 NO OUTPUT CONTROL FOR STRESS PERIOD   17   TIME STEP   14
 
 SOLVING FOR HEAD 
                                                   Max.-Head-Change                         Max.-Flux-Residual
  Residual-Control   Outer-Iter.   Inner-Iter.     Column Row Layer    Maximum-Head-Change  Column Row Layer    Maximum-Flux-Residual          L2-NORM 
          0                 1           2             3    7     1       0.5130078113E-02       1    1    1         0.2338743092E+00      0.7807335739E+00
          0                 2           2             3    7     1      -0.4990164188E-03       1    1    1        -0.2338746917E-01      0.7793724791E-01
          0                 3           1             3    7     1       0.3398120092E-04       1    1    1         0.1637123183E-02      0.5442973154E-02

    ------------------------------------------------
       NWT REQUIRED            3 OUTER ITERATIONS 
       AND A TOTAL OF          5 INNER ITERATIONS.
    ------------------------------------------------

 NO OUTPUT CONTROL FOR STRESS PERIOD   17   TIME STEP   15
 
 SOLVING FOR HEAD 
                                                   Max.-Head-Change                         Max.-Flux-Residual
  Residual-Control   Outer-Iter.   Inner-Iter.     Column Row Layer    Maximum-Head-Change  Column Row Layer    Maximum-Flux-Residual          L2-NORM 
          0                 1           2             3    7     1       0.5019908903E-02       1    1    1         0.2336270130E+00      0.7622885602E+00
          0                 2           2             3    7     1      -0.4887209992E-03       1    1    1        -0.2336273938E-01      0.7610928233E-01
          0                 3           1             3    7     1       0.3368970169E-04       1    1    1         0.1635392098E-02      0.5322022947E-02

    ------------------------------------------------
       NWT REQUIRED            3 OUTER ITERATIONS 
       AND A TOTAL OF          5 INNER ITERATIONS.
    ------------------------------------------------

 NO OUTPUT CONTROL FOR STRESS PERIOD   17   TIME STEP   16
 
 SOLVING FOR HEAD 
                                                   Max.-Head-Change                         Max.-Flux-Residual
  Residual-Control   Outer-Iter.   Inner-Iter.     Column Row Layer    Maximum-Head-Change  Column Row Layer    Maximum-Flux-Residual          L2-NORM 
          0                 1           2             3    7     1       0.4911950109E-02       1    1    1         0.2333817427E+00      0.7452344519E+00
          0                 2           2             3    7     1      -0.4695237341E-03       1    1    1        -0.2333821220E-01      0.7433108304E-01
          0                 3           1             3    7     1       0.3197284041E-04       1    1    1         0.1633675202E-02      0.5194689082E-02

    ------------------------------------------------
       NWT REQUIRED            3 OUTER ITERATIONS 
       AND A TOTAL OF          5 INNER ITERATIONS.
    ------------------------------------------------

 NO OUTPUT CONTROL FOR STRESS PERIOD   17   TIME STEP   17
 
 SOLVING FOR HEAD 
                                                   Max.-Head-Change                         Max.-Flux-Residual
  Residual-Control   Outer-Iter.   Inner-Iter.     Column Row Layer    Maximum-Head-Change  Column Row Layer    Maximum-Flux-Residual          L2-NORM 
          0                 1           2             3    7     1       0.4823186213E-02       1    1    1         0.2331360813E+00      0.7294692126E+00
          0                 2           2             3    7     1      -0.4691654172E-03       1    1    1        -0.2331364590E-01      0.7286650239E-01
          0                 3           1             3    7     1       0.3194843868E-04       1    1    1         0.1631955557E-02      0.5093349986E-02

    ------------------------------------------------
       NWT REQUIRED            3 OUTER ITERATIONS 
       AND A TOTAL OF          5 INNER ITERATIONS.
    ------------------------------------------------

 NO OUTPUT CONTROL FOR STRESS PERIOD   17   TIME STEP   18
 
 SOLVING FOR HEAD 
                                                   Max.-Head-Change                         Max.-Flux-Residual
  Residual-Control   Outer-Iter.   Inner-Iter.     Column Row Layer    Maximum-Head-Change  Column Row Layer    Maximum-Flux-Residual          L2-NORM 
          0                 1           2             3    7     1       0.4727867753E-02       1    1    1         0.2328924372E+00      0.7147908315E+00
          0                 2           2             3    7     1      -0.4598934936E-03       1    1    1        -0.2328928132E-01      0.7141189682E-01
          0                 3           1             3    7     1       0.3131705439E-04       1    1    1         0.1630250044E-02      0.4992849171E-02

    ------------------------------------------------
       NWT REQUIRED            3 OUTER ITERATIONS 
       AND A TOTAL OF          5 INNER ITERATIONS.
    ------------------------------------------------

 NO OUTPUT CONTROL FOR STRESS PERIOD   17   TIME STEP   19
 
 SOLVING FOR HEAD 
                                                   Max.-Head-Change                         Max.-Flux-Residual
  Residual-Control   Outer-Iter.   Inner-Iter.     Column Row Layer    Maximum-Head-Change  Column Row Layer    Maximum-Flux-Residual          L2-NORM 
          0                 1           2             3    7     1       0.4634237717E-02       1    1    1         0.2326483933E+00      0.7010639215E+00
          0                 2           2             3    7     1      -0.4507858084E-03       1    1    1        -0.2326487677E-01      0.7004985704E-01
          0                 3           1             3    7     1       0.3069685386E-04       1    1    1         0.1628541735E-02      0.4898479504E-02

    ------------------------------------------------
       NWT REQUIRED            3 OUTER ITERATIONS 
       AND A TOTAL OF          5 INNER ITERATIONS.
    ------------------------------------------------

 NO OUTPUT CONTROL FOR STRESS PERIOD   17   TIME STEP   20
 
 SOLVING FOR HEAD 
                                                   Max.-Head-Change                         Max.-Flux-Residual
  Residual-Control   Outer-Iter.   Inner-Iter.     Column Row Layer    Maximum-Head-Change  Column Row Layer    Maximum-Flux-Residual          L2-NORM 
          0                 1           2             3    7     1       0.4542515771E-02       1    1    1         0.2324063568E+00      0.6881862955E+00
          0                 2           2             3    7     1      -0.4418637297E-03       1    1    1        -0.2324067298E-01      0.6877104494E-01
          0                 3           1             3    7     1       0.3008929310E-04       1    1    1         0.1626847463E-02      0.4809560538E-02

    ------------------------------------------------
       NWT REQUIRED            3 OUTER ITERATIONS 
       AND A TOTAL OF          5 INNER ITERATIONS.
    ------------------------------------------------

 NO OUTPUT CONTROL FOR STRESS PERIOD   17   TIME STEP   21
 
 SOLVING FOR HEAD 
                                                   Max.-Head-Change                         Max.-Flux-Residual
  Residual-Control   Outer-Iter.   Inner-Iter.     Column Row Layer    Maximum-Head-Change  Column Row Layer    Maximum-Flux-Residual          L2-NORM 
          0                 1           2             1    1     1       0.4472241491E-02       1    1    1         0.2321639116E+00      0.6760784323E+00
          0                 2           2             1    1     1      -0.4350277080E-03       1    1    1        -0.2321642829E-01      0.6756779501E-01
          0                 3           1             1    1     1       0.2962376884E-04       1    1    1         0.1625150338E-02      0.4726069194E-02

    ------------------------------------------------
       NWT REQUIRED            3 OUTER ITERATIONS 
       AND A TOTAL OF          5 INNER ITERATIONS.
    ------------------------------------------------

 NO OUTPUT CONTROL FOR STRESS PERIOD   17   TIME STEP   22
 
 SOLVING FOR HEAD 
                                                   Max.-Head-Change                         Max.-Flux-Residual
  Residual-Control   Outer-Iter.   Inner-Iter.     Column Row Layer    Maximum-Head-Change  Column Row Layer    Maximum-Flux-Residual          L2-NORM 
          0                 1           2             1    1     1       0.4467595994E-02       1    1    1         0.2319222619E+00      0.6646626905E+00
          0                 2           2             1    1     1      -0.4345758256E-03       1    1    1        -0.2319226318E-01      0.6643255386E-01
          0                 3           1             1    1     1       0.2959299706E-04       1    1    1         0.1623458779E-02      0.4647060400E-02

    ------------------------------------------------
       NWT REQUIRED            3 OUTER ITERATIONS 
       AND A TOTAL OF          5 INNER ITERATIONS.
    ------------------------------------------------

 NO OUTPUT CONTROL FOR STRESS PERIOD   17   TIME STEP   23
 
 SOLVING FOR HEAD 
                                                   Max.-Head-Change                         Max.-Flux-Residual
  Residual-Control   Outer-Iter.   Inner-Iter.     Column Row Layer    Maximum-Head-Change  Column Row Layer    Maximum-Flux-Residual          L2-NORM 
          0                 1           2             1    1     1       0.4462988876E-02       1    1    1         0.2316826071E+00      0.6538779959E+00
          0                 2           2             1    1     1      -0.4341276762E-03       1    1    1        -0.2316829754E-01      0.6535940358E-01
          0                 3           1             1    1     1       0.2956247993E-04       1    1    1         0.1621781180E-02      0.4572636093E-02

    ------------------------------------------------
       NWT REQUIRED            3 OUTER ITERATIONS 
       AND A TOTAL OF          5 INNER ITERATIONS.
    ------------------------------------------------

 NO OUTPUT CONTROL FOR STRESS PERIOD   17   TIME STEP   24
 
 SOLVING FOR HEAD 
                                                   Max.-Head-Change                         Max.-Flux-Residual
  Residual-Control   Outer-Iter.   Inner-Iter.     Column Row Layer    Maximum-Head-Change  Column Row Layer    Maximum-Flux-Residual          L2-NORM 
          0                 1           2             1    1     1       0.4458373598E-02       1    1    1         0.2314425303E+00      0.6436569975E+00
          0                 2           2             1    1     1      -0.4336787330E-03       1    1    1        -0.2314428970E-01      0.6434151055E-01
          0                 3           1             1    1     1       0.2953190861E-04       1    1    1         0.1620100632E-02      0.4501662971E-02

    ------------------------------------------------
       NWT REQUIRED            3 OUTER ITERATIONS 
       AND A TOTAL OF          5 INNER ITERATIONS.
    ------------------------------------------------

 NO OUTPUT CONTROL FOR STRESS PERIOD   17   TIME STEP   25
 
 SOLVING FOR HEAD 
                                                   Max.-Head-Change                         Max.-Flux-Residual
  Residual-Control   Outer-Iter.   Inner-Iter.     Column Row Layer    Maximum-Head-Change  Column Row Layer    Maximum-Flux-Residual          L2-NORM 
          0                 1           2             1    1     1       0.4453773321E-02       1    1    1         0.2312032364E+00      0.6339716139E+00
          0                 2           2             1    1     1      -0.4332312495E-03       1    1    1        -0.2312036017E-01      0.6337685981E-01
          0                 3           1             1    1     1       0.2950143669E-04       1    1    1         0.1618425568E-02      0.4434373506E-02

    ------------------------------------------------
       NWT REQUIRED            3 OUTER ITERATIONS 
       AND A TOTAL OF          5 INNER ITERATIONS.
    ------------------------------------------------

 NO OUTPUT CONTROL FOR STRESS PERIOD   17   TIME STEP   26
 
 SOLVING FOR HEAD 
                                                   Max.-Head-Change                         Max.-Flux-Residual
  Residual-Control   Outer-Iter.   Inner-Iter.     Column Row Layer    Maximum-Head-Change  Column Row Layer    Maximum-Flux-Residual          L2-NORM 
          0                 1           2             1    1     1       0.4449187981E-02       1    1    1         0.2309647202E+00      0.6247584103E+00
          0                 2           2             1    1     1      -0.4327852185E-03       1    1    1        -0.2309650840E-01      0.6245866249E-01
          0                 3           1             1    1     1       0.2947106322E-04       1    1    1         0.1616755932E-02      0.4370507496E-02

    ------------------------------------------------
       NWT REQUIRED            3 OUTER ITERATIONS 
       AND A TOTAL OF          5 INNER ITERATIONS.
    ------------------------------------------------

 NO OUTPUT CONTROL FOR STRESS PERIOD   17   TIME STEP   27
 
 SOLVING FOR HEAD 
                                                   Max.-Head-Change                         Max.-Flux-Residual
  Residual-Control   Outer-Iter.   Inner-Iter.     Column Row Layer    Maximum-Head-Change  Column Row Layer    Maximum-Flux-Residual          L2-NORM 
          0                 1           2             1    1     1       0.4444617484E-02       1    1    1         0.2307269786E+00      0.6159898363E+00
          0                 2           2             1    1     1      -0.4323406314E-03       1    1    1        -0.2307273407E-01      0.6158429483E-01
          0                 3           1             1    1     1       0.2944078892E-04       1    1    1         0.1615091741E-02      0.4309483080E-02

    ------------------------------------------------
       NWT REQUIRED            3 OUTER ITERATIONS 
       AND A TOTAL OF          5 INNER ITERATIONS.
    ------------------------------------------------

 NO OUTPUT CONTROL FOR STRESS PERIOD   17   TIME STEP   28
 
 SOLVING FOR HEAD 
                                                   Max.-Head-Change                         Max.-Flux-Residual
  Residual-Control   Outer-Iter.   Inner-Iter.     Column Row Layer    Maximum-Head-Change  Column Row Layer    Maximum-Flux-Residual          L2-NORM 
          0                 1           2             1    1     1       0.4440084998E-02       1    1    1         0.2304912131E+00      0.6076404744E+00
          0                 2           2             1    1     1      -0.4318997420E-03       1    1    1        -0.2304915740E-01      0.6075168755E-01
          0                 3           1             1    1     1       0.2941076597E-04       1    1    1         0.1613441365E-02      0.4251503512E-02

    ------------------------------------------------
       NWT REQUIRED            3 OUTER ITERATIONS 
       AND A TOTAL OF          5 INNER ITERATIONS.
    ------------------------------------------------

 NO OUTPUT CONTROL FOR STRESS PERIOD   17   TIME STEP   29
 
 SOLVING FOR HEAD 
                                                   Max.-Head-Change                         Max.-Flux-Residual
  Residual-Control   Outer-Iter.   Inner-Iter.     Column Row Layer    Maximum-Head-Change  Column Row Layer    Maximum-Flux-Residual          L2-NORM 
          0                 1           2             1    1     1       0.3857030649E-02       4   13    1        -0.2141645847E+00      0.6861111618E+00
          0                 2           2             1    1     1      -0.3751842791E-03       4   13    1         0.2120166489E-01      0.6798932251E-01
          0                 3           1             1    1     1       0.2554865461E-04       4   13    1        -0.1463202636E-02      0.4702210365E-02

    ------------------------------------------------
       NWT REQUIRED            3 OUTER ITERATIONS 
       AND A TOTAL OF          5 INNER ITERATIONS.
    ------------------------------------------------

 NO OUTPUT CONTROL FOR STRESS PERIOD   17   TIME STEP   30



 STREAM LISTING     PERIOD     17   STEP       30

 LAYER ROW COL. STREAM  RCH.  FLOW INTO     FLOW TO   FLOW OUT OF   OVRLND.     DIRECT     STREAM       STREAM     STREAM     STREAM   STREAMBED  STREAMBED
                SEG.NO.  NO.  STRM. RCH.    AQUIFER    STRM. RCH.    RUNOFF     PRECIP       ET          HEAD       DEPTH      WIDTH   CONDCTNC.   GRADIENT

   1    1    1     1     1    6.5908E+01  3.9227E-01   6.5516E+01  0.000E+00  0.000E+00  0.000E+00  1.09464E+03  1.596E+00  1.897E+01  8.536E-02  1.532E+00
   1    2    2     1     2    6.5516E+01  6.0756E-01   6.4909E+01  0.000E+00  0.000E+00  0.000E+00  1.08965E+03  1.590E+00  1.891E+01  1.324E-01  1.530E+00
   1    3    3     1     3    6.4909E+01  5.1821E-01   6.4390E+01  0.000E+00  0.000E+00  0.000E+00  1.08400E+03  1.583E+00  1.884E+01  1.131E-01  1.528E+00
   1    3    4     1     4    6.4390E+01  4.7725E-01   6.3913E+01  0.000E+00  0.000E+00  0.000E+00  1.07899E+03  1.577E+00  1.879E+01  1.043E-01  1.526E+00
   1    4    5     2     1    6.1913E+01  3.9598E-01   6.1517E+01  0.000E+00  0.000E+00  0.000E+00  1.07401E+03  2.077E+00  1.200E+01  7.800E-02  1.692E+00
   1    5    6     2     2    6.1517E+01  3.0418E-01   6.1213E+01  0.000E+00  0.000E+00  0.000E+00  1.06858E+03  2.070E+00  1.200E+01  6.000E-02  1.690E+00
   1    6    6     2     3    6.1213E+01  3.0381E-01   6.0909E+01  0.000E+00  0.000E+00  0.000E+00  1.06386E+03  2.063E+00  1.200E+01  6.000E-02  1.688E+00
   1    7    6     2     4    6.0909E+01  3.0344E-01   6.0606E+01  0.000E+00  0.000E+00  0.000E+00  1.05913E+03  2.057E+00  1.200E+01  6.000E-02  1.686E+00
   1    8    6     2     5    6.0606E+01  3.0307E-01   6.0303E+01  0.000E+00  0.000E+00  0.000E+00  1.05441E+03  2.051E+00  1.200E+01  6.000E-02  1.684E+00
   1    3    5     3     1    2.0000E+00  2.8252E-01   1.7175E+00  0.000E+00  0.000E+00  0.000E+00  1.07555E+03  1.909E+00  9.636E+00  7.227E-02  1.955E+00
   1    3    6     3     2    1.7175E+00  2.4905E-01   1.4684E+00  0.000E+00  0.000E+00  0.000E+00  1.07264E+03  1.727E+00  8.909E+00  6.682E-02  1.864E+00
   1    3    7     3     3    1.4684E+00  1.9718E-01   1.2712E+00  0.000E+00  0.000E+00  0.000E+00  1.06987E+03  1.555E+00  8.218E+00  5.547E-02  1.777E+00
   1    4    8     3     4    1.2712E+00  2.2567E-01   1.0456E+00  0.000E+00  0.000E+00  0.000E+00  1.06682E+03  1.364E+00  7.455E+00  6.709E-02  1.682E+00
   1    5    8     3     5    1.0456E+00  1.5790E-01   8.8768E-01  0.000E+00  0.000E+00  0.000E+00  1.06362E+03  1.164E+00  6.655E+00  4.991E-02  1.582E+00
   1    6    8     3     6    8.8768E-01  5.5980E-02   8.3170E-01  0.000E+00  0.000E+00  0.000E+00  1.06158E+03  1.036E+00  6.145E+00  1.844E-02  1.518E+00
   1    5   10     4     1    1.0000E+01  9.0919E-02   9.9091E+00  0.000E+00  0.000E+00  0.000E+00  1.07836E+03  6.368E-01  1.000E+01  2.500E-02  1.212E+00
   1    5    9     4     2    9.9091E+00  1.8158E-01   9.7275E+00  0.000E+00  0.000E+00  0.000E+00  1.07154E+03  6.315E-01  1.000E+01  5.000E-02  1.211E+00
   1    6    8     4     3    9.7275E+00  1.2689E-01   9.6006E+00  0.000E+00  0.000E+00  0.000E+00  1.06381E+03  6.256E-01  1.000E+01  3.500E-02  1.209E+00
   1    6    8     5     1    1.0432E+01  2.2686E-01   1.0205E+01  0.000E+00  0.000E+00  0.000E+00  1.05868E+03  6.790E-01  1.542E+01  6.166E-02  1.226E+00
   1    7    7     5     2    1.0205E+01  2.7894E-01   9.9265E+00  0.000E+00  0.000E+00  0.000E+00  1.05417E+03  6.732E-01  1.519E+01  7.594E-02  1.224E+00
   1    8    7     5     3    9.9265E+00  1.9221E-01   9.7343E+00  0.000E+00  0.000E+00  0.000E+00  1.04992E+03  6.676E-01  1.497E+01  5.241E-02  1.223E+00
   1    8    6     5     4    9.7343E+00  1.3577E-01   9.5985E+00  0.000E+00  0.000E+00  0.000E+00  1.04691E+03  6.637E-01  1.482E+01  3.706E-02  1.221E+00
   1    9    6     6     1    6.9901E+01  3.1559E-01   6.9586E+01  0.000E+00  0.000E+00  0.000E+00  1.04499E+03  2.260E+00  1.200E+01  6.000E-02  1.753E+00
   1   10    7     6     2    6.9586E+01  3.1522E-01   6.9270E+01  0.000E+00  0.000E+00  0.000E+00  1.04044E+03  2.254E+00  1.200E+01  6.000E-02  1.751E+00
   1   11    7     6     3    6.9270E+01  3.1485E-01   6.8955E+01  0.000E+00  0.000E+00  0.000E+00  1.03588E+03  2.248E+00  1.200E+01  6.000E-02  1.749E+00
   1   12    7     6     4    6.8955E+01  3.1448E-01   6.8641E+01  0.000E+00  0.000E+00  0.000E+00  1.03133E+03  2.241E+00  1.200E+01  6.000E-02  1.747E+00
   1   13    7     6     5    6.8641E+01  2.4786E-02   6.8616E+01  0.000E+00  0.000E+00  0.000E+00  1.02815E+03  2.238E+00  1.200E+01  2.400E-02  3.442E-01
   1   14    9     7     1    1.5000E+02  1.3305E+00   1.4867E+02  0.000E+00  0.000E+00  0.000E+00  1.03987E+03  2.288E+00  5.529E+01  5.593E-01  7.929E-01
   1   13    8     7     2    1.4867E+02  1.8208E+00   1.4685E+02  0.000E+00  0.000E+00  0.000E+00  1.03478E+03  2.279E+00  5.526E+01  6.148E-01  9.872E-01
   1   13    7     7     3    1.4685E+02  1.4384E+00   1.4541E+02  0.000E+00  0.000E+00  0.000E+00  1.02969E+03  2.271E+00  5.522E+01  5.585E-01  8.585E-01
   1   13    6     8     1    2.1403E+02  1.0642E+00   2.1296E+02  0.000E+00  0.000E+00  0.000E+00  1.02509E+03  3.215E+00  4.662E+01  4.751E-01  7.466E-01
   1   13    5     8     2    2.1296E+02  2.5230E-01   2.1271E+02  0.000E+00  0.000E+00  0.000E+00  1.01884E+03  3.212E+00  4.657E+01  4.746E-01  1.772E-01
   1   13    4     8     3    2.1271E+02 -2.3278E+00   2.1504E+02  0.000E+00  0.000E+00  0.000E+00  1.01259E+03  3.218E+00  4.666E+01  4.754E+00 -1.632E-01
   1   13    3     8     4    2.1504E+02 -3.6183E+00   2.1866E+02  0.000E+00  0.000E+00  0.000E+00  1.00636E+03  3.234E+00  4.690E+01  4.779E+00 -2.524E-01
   1   13    2     8     5    2.1866E+02 -2.7132E+00   2.2137E+02  0.000E+00  0.000E+00  0.000E+00  1.00013E+03  3.252E+00  4.715E+01  4.805E+00 -1.882E-01
   1   13    1     8     6    2.2137E+02 -2.0833E+00   2.2345E+02  0.000E+00  0.000E+00  0.000E+00  9.95140E+02  3.265E+00  4.735E+01  2.895E+00 -2.399E-01





UNSATURATED ZONE PACKAGE VOLUMETRIC BUDGET FOR  TIME STEP    30 STRESS PERIOD   17
  ------------------------------------------------------------------------------



     CUMULATIVE VOLUMES      L**3       RATES FOR THIS TIME STEP      L**3/T
     ------------------                 ------------------------

           IN:                                      IN:
           ---                                      ---
        INFILTRATION =   480562116.1223          INFILTRATION =           4.5675

          OUT:                                     OUT:
          ----                                     ----
              UZF ET =   442561049.3147                UZF ET =           4.5675
        UZF RECHARGE =    37930890.8416          UZF RECHARGE =       0.0000E+00

            IN - OUT =       70175.9660              IN - OUT =       0.0000E+00

          STORAGE:                                 STORAGE:
          --------                                 --------
      STORAGE CHANGE =       70177.9937        STORAGE CHANGE =       8.5030E-15

 PERCENT DISCREPANCY IS DIFFERENCE BETWEEN IN-OUT MINUS CHANGE IN STORAGE
 DIVIDED BY THE AVERAGE OF IN AND OUT TIMES 100

 PERCENT DISCREPANCY =           0.00     PERCENT DISCREPANCY =           0.00






1
  VOLUMETRIC BUDGET FOR AGRICULTURAL FIELDS AT  END OF TIME STEP   30, STRESS PERIOD  17
  ------------------------------------------------------------------------------

     CUMULATIVE VOLUMES      L**3       RATES FOR THIS TIME STEP      L**3/T
     ------------------                 ------------------------

           IN:                                      IN:
           ---                                      ---
               AG WELLS  =   444825408.0000                 AG WELLS  =           3.7200
      DIVERSION SEGMENTS =           0.0000        DIVERSION SEGMENTS =           0.0000
           GW IRRIGATION =           0.0000             GW IRRIGATION =           0.0000
           SW IRRIGATION =           0.0000             SW IRRIGATION =           0.0000
        SYSTEM LOSSES GW =           0.0000          SYSTEM LOSSES GW =           0.0000
        SYSTEM LOSSES SW =           0.0000          SYSTEM LOSSES SW =           0.0000

                TOTAL IN =   444825408.0000                  TOTAL IN =           3.7200

          OUT:                                     OUT:
          ----                                     ----
               AG WELLS  =           0.0000                 AG WELLS  =           0.0000
      DIVERSION SEGMENTS =           0.0000        DIVERSION SEGMENTS =           0.0000
           GW IRRIGATION =   444825408.0000             GW IRRIGATION =           3.7200
           SW IRRIGATION =           0.0000             SW IRRIGATION =           0.0000
        SYSTEM LOSSES GW =           0.0000          SYSTEM LOSSES GW =           0.0000
        SYSTEM LOSSES SW =           0.0000          SYSTEM LOSSES SW =           0.0000

               TOTAL OUT =   444825408.0000                 TOTAL OUT =           3.7200

                IN - OUT =           0.0000                  IN - OUT =           0.0000

     PERCENT DISCREPANCY =           0.00         PERCENT DISCREPANCY =           0.00



1
  VOLUMETRIC BUDGET FOR ENTIRE MODEL AT END OF TIME STEP   30, STRESS PERIOD  17
  ------------------------------------------------------------------------------

     CUMULATIVE VOLUMES      L**3       RATES FOR THIS TIME STEP      L**3/T
     ------------------                 ------------------------

           IN:                                      IN:
           ---                                      ---
             STORAGE     =   607188672.0000               STORAGE     =           3.4426
       CONSTANT HEAD     =           0.0000         CONSTANT HEAD     =           0.0000
     HEAD DEP BOUNDS     =    12034748.0000       HEAD DEP BOUNDS     =           0.2854
      STREAM LEAKAGE     =   527471008.0000        STREAM LEAKAGE     =          13.1983
        UZF RECHARGE     =    37930912.0000          UZF RECHARGE     =           0.0000
               GW ET     =           0.0000                 GW ET     =           0.0000
     SURFACE LEAKAGE     =           0.0000       SURFACE LEAKAGE     =           0.0000
           AG WELLS      =           0.0000             AG WELLS      =           0.0000

                TOTAL IN =  1184625280.0000                  TOTAL IN =          16.9263

          OUT:                                     OUT:
          ----                                     ----
             STORAGE     =   278460704.0000               STORAGE     =           1.9182
       CONSTANT HEAD     =           0.0000         CONSTANT HEAD     =           0.0000
     HEAD DEP BOUNDS     =    12416516.0000       HEAD DEP BOUNDS     =           0.2987
      STREAM LEAKAGE     =   434371840.0000        STREAM LEAKAGE     =          10.7426
        UZF RECHARGE     =           0.0000          UZF RECHARGE     =           0.0000
               GW ET     =    14553111.0000                 GW ET     =           0.2464
     SURFACE LEAKAGE     =           0.0000       SURFACE LEAKAGE     =           0.0000
           AG WELLS      =   444825408.0000             AG WELLS      =           3.7200

               TOTAL OUT =  1184627456.0000                 TOTAL OUT =          16.9258

                IN - OUT =       -2176.0000                  IN - OUT =       4.4060E-04

     PERCENT DISCREPANCY =          -0.00         PERCENT DISCREPANCY =           0.00






         TIME SUMMARY AT END OF TIME STEP   30 IN STRESS PERIOD   17
                    SECONDS     MINUTES      HOURS       DAYS        YEARS
                    -----------------------------------------------------------
   TIME STEP LENGTH  87667.      1461.1      24.352      1.0147     2.77799E-03
 STRESS PERIOD TIME 2.63000E+06  43833.      730.56      30.440     8.33397E-02
         TOTAL TIME 4.21664E+07 7.02774E+05  11713.      488.04      1.3362    
1
1
                            STRESS PERIOD NO.   18, LENGTH =   2630000.    
                            -----------------------------------------------

                              NUMBER OF TIME STEPS =    30

                               MULTIPLIER FOR DELT =     1.000

                            INITIAL TIME STEP SIZE =   87666.66    

 REUSING NON-PARAMETER GHB CELLS FROM LAST STRESS PERIOD

      2 GHB CELLS

 REUSING STREAM SEGMENT DATA FROM LAST STRESS PERIOD



            AREAL INFILTRATION RATE
 READING ON UNIT   19 WITH FORMAT: (FREE)              

            1           2           3           4           5           6           7           8           9          10
 ........................................................................................................................
   1   1.0000E-10  2.0000E-10   0.000       0.000       0.000       0.000       0.000       0.000       0.000       0.000    
   2   2.0000E-10  1.0000E-10  2.0000E-10   0.000       0.000      8.0000E-10  8.0000E-10  5.0000E-10   0.000       0.000    
   3    0.000      5.0000E-10  1.0000E-10  1.0000E-10  8.0000E-10  8.0000E-10  5.0000E-10  5.0000E-10   0.000       0.000    
   4   8.0000E-10  5.0000E-10  1.0000E-10  1.0000E-10  1.0000E-10  1.0000E-10  1.0000E-10  1.0000E-10  2.0000E-10   0.000    
   5   8.0000E-10  5.0000E-10  1.0000E-10  1.0000E-10  1.0000E-10  1.0000E-10  1.0000E-10  1.0000E-10  1.0000E-10  1.0000E-10
   6   8.0000E-10  5.0000E-10  5.0000E-10  2.0000E-10  2.0000E-10  1.0000E-10  1.0000E-10  1.0000E-10  1.0000E-10  5.0000E-10
   7   8.0000E-10  5.0000E-10  5.0000E-10  2.0000E-10  2.0000E-10  1.0000E-10  1.0000E-10  2.0000E-10  2.0000E-10   0.000    
   8    0.000      5.0000E-10  5.0000E-10  2.0000E-10  2.0000E-10  1.0000E-10  1.0000E-10  2.0000E-10  5.0000E-10   0.000    
   9    0.000      5.0000E-10  5.0000E-10  2.0000E-10  2.0000E-10  1.0000E-10  1.0000E-10  2.0000E-10  5.0000E-10   0.000    
  10    0.000      5.0000E-10  5.0000E-10  2.0000E-10  2.0000E-10  1.0000E-10  1.0000E-10  2.0000E-10  5.0000E-10  8.0000E-10
  11    0.000      1.0000E-10  1.0000E-10  1.0000E-10  1.0000E-10  1.0000E-10  1.0000E-10  2.0000E-10  5.0000E-10   0.000    
  12   1.0000E-10  1.0000E-10  1.0000E-10  1.0000E-10  1.0000E-10  1.0000E-10  1.0000E-10  1.0000E-10  2.0000E-10   0.000    
  13   1.0000E-10  1.0000E-10  2.0000E-10  2.0000E-10  2.0000E-10  2.0000E-10  2.0000E-10  1.0000E-10  1.0000E-10   0.000    
  14    0.000      2.0000E-10  5.0000E-10  5.0000E-10  5.0000E-10  5.0000E-10  5.0000E-10  2.0000E-10  1.0000E-10   0.000    
  15    0.000       0.000      8.0000E-10  8.0000E-10  8.0000E-10  8.0000E-10   0.000       0.000       0.000       0.000    

                  ET RATE =  5.000000E-08

 USING ET EXTINCTION DEPTH FROM PREVIOUS STRESS PERIOD. CURRENT PERIOD IS:      18

 USING EXTINCTION WATER CONTENT FROM PREVIOUS STRESS PERIOD. CURRENT PERIOD IS:      18

 USING AIR ENTRY PRESSURE FROM PREVIOUS STRESS PERIOD. CURRENT PERIOD IS:      18

 USING ROOT PRESSURE HEAD FROM PREVIOUS STRESS PERIOD. CURRENT PERIOD IS:      18

 USING ROOT ACTIVITY FROM PREVIOUS STRESS PERIOD. CURRENT PERIOD IS:      18

 PROCESSING AG STRESS PERIOD DATA

 READING AG STRESS PERIOD DATA

 READING IRRIGATION WELL

 END PROCESSING AG STRESS PERIOD DATA OPTIONS
 
 SOLVING FOR HEAD 
                                                   Max.-Head-Change                         Max.-Flux-Residual
  Residual-Control   Outer-Iter.   Inner-Iter.     Column Row Layer    Maximum-Head-Change  Column Row Layer    Maximum-Flux-Residual          L2-NORM 
          0                 1           2             4    7     1      -0.1419760103E-01       4    7    1        -0.7434609964E+00      0.1911266210E+01
          0                 2           2             4    7     1       0.1381038202E-02       4    7    1         0.7434602570E-01      0.1906159967E+00
          0                 3           1             4    7     1      -0.9404359332E-04       4    7    1        -0.5204224755E-02      0.1329700336E-01

    ------------------------------------------------
       NWT REQUIRED            3 OUTER ITERATIONS 
       AND A TOTAL OF          5 INNER ITERATIONS.
    ------------------------------------------------

 NO OUTPUT CONTROL FOR STRESS PERIOD   18   TIME STEP    1
 
 SOLVING FOR HEAD 
                                                   Max.-Head-Change                         Max.-Flux-Residual
  Residual-Control   Outer-Iter.   Inner-Iter.     Column Row Layer    Maximum-Head-Change  Column Row Layer    Maximum-Flux-Residual          L2-NORM 
          0                 1           2             4    7     1      -0.1408157771E-01       4    7    1        -0.7376890039E+00      0.1855751609E+01
          0                 2           2             4    7     1       0.1369752127E-02       4    7    1         0.7376881460E-01      0.1851531070E+00
          0                 3           1             4    7     1      -0.9327505509E-04       4    7    1        -0.5163820053E-02      0.1292252130E-01

    ------------------------------------------------
       NWT REQUIRED            3 OUTER ITERATIONS 
       AND A TOTAL OF          5 INNER ITERATIONS.
    ------------------------------------------------

 NO OUTPUT CONTROL FOR STRESS PERIOD   18   TIME STEP    2
 
 SOLVING FOR HEAD 
                                                   Max.-Head-Change                         Max.-Flux-Residual
  Residual-Control   Outer-Iter.   Inner-Iter.     Column Row Layer    Maximum-Head-Change  Column Row Layer    Maximum-Flux-Residual          L2-NORM 
          0                 1           2             4    7     1      -0.1396123001E-01       4    7    1        -0.7316657972E+00      0.1805602719E+01
          0                 2           2             4    7     1       0.1358045428E-02       4    7    1         0.7316648341E-01      0.1802109896E+00
          0                 3           1             4    7     1      -0.9247787395E-04       4    7    1        -0.5121656959E-02      0.1258288669E-01

    ------------------------------------------------
       NWT REQUIRED            3 OUTER ITERATIONS 
       AND A TOTAL OF          5 INNER ITERATIONS.
    ------------------------------------------------

 NO OUTPUT CONTROL FOR STRESS PERIOD   18   TIME STEP    3
 
 SOLVING FOR HEAD 
                                                   Max.-Head-Change                         Max.-Flux-Residual
  Residual-Control   Outer-Iter.   Inner-Iter.     Column Row Layer    Maximum-Head-Change  Column Row Layer    Maximum-Flux-Residual          L2-NORM 
          0                 1           2             4    7     1      -0.1383691069E-01       4    7    1        -0.7254110111E+00      0.1759955906E+01
          0                 2           2             4    7     1       0.1345963500E-02       4    7    1         0.7254099550E-01      0.1757058811E+00
          0                 3           1             4    7     1      -0.9166592428E-04       4    7    1        -0.5077872868E-02      0.1229229974E-01

    ------------------------------------------------
       NWT REQUIRED            3 OUTER ITERATIONS 
       AND A TOTAL OF          5 INNER ITERATIONS.
    ------------------------------------------------

 NO OUTPUT CONTROL FOR STRESS PERIOD   18   TIME STEP    4
 
 SOLVING FOR HEAD 
                                                   Max.-Head-Change                         Max.-Flux-Residual
  Residual-Control   Outer-Iter.   Inner-Iter.     Column Row Layer    Maximum-Head-Change  Column Row Layer    Maximum-Flux-Residual          L2-NORM 
          0                 1           2             4    7     1      -0.1370908852E-01       4    7    1        -0.7189503325E+00      0.1718126349E+01
          0                 2           2             4    7     1       0.1333417142E-02       4    7    1         0.7189491951E-01      0.1713836372E+00
          0                 3           1             4    7     1      -0.9080078135E-04       4    7    1        -0.5032647637E-02      0.1197494254E-01

    ------------------------------------------------
       NWT REQUIRED            3 OUTER ITERATIONS 
       AND A TOTAL OF          5 INNER ITERATIONS.
    ------------------------------------------------

 NO OUTPUT CONTROL FOR STRESS PERIOD   18   TIME STEP    5
 
 SOLVING FOR HEAD 
                                                   Max.-Head-Change                         Max.-Flux-Residual
  Residual-Control   Outer-Iter.   Inner-Iter.     Column Row Layer    Maximum-Head-Change  Column Row Layer    Maximum-Flux-Residual          L2-NORM 
          0                 1           2             4    7     1      -0.1357864772E-01       4    7    1        -0.7123207576E+00      0.1679710508E+01
          0                 2           2             4    7     1       0.1320830290E-02       4    7    1         0.7123195532E-01      0.1677722912E+00
          0                 3           1             4    7     1      -0.8994366460E-04       4    7    1        -0.4986240169E-02      0.1172597922E-01

    ------------------------------------------------
       NWT REQUIRED            3 OUTER ITERATIONS 
       AND A TOTAL OF          5 INNER ITERATIONS.
    ------------------------------------------------

 NO OUTPUT CONTROL FOR STRESS PERIOD   18   TIME STEP    6
 
 SOLVING FOR HEAD 
                                                   Max.-Head-Change                         Max.-Flux-Residual
  Residual-Control   Outer-Iter.   Inner-Iter.     Column Row Layer    Maximum-Head-Change  Column Row Layer    Maximum-Flux-Residual          L2-NORM 
          0                 1           2             4    7     1      -0.1344539034E-01       4    7    1        -0.7055299060E+00      0.1644067475E+01
          0                 2           2             4    7     1       0.1307867896E-02       4    7    1         0.7055286421E-01      0.1642415650E+00
          0                 3           1             4    7     1      -0.8906097424E-04       4    7    1        -0.4938703815E-02      0.1148197152E-01

    ------------------------------------------------
       NWT REQUIRED            3 OUTER ITERATIONS 
       AND A TOTAL OF          5 INNER ITERATIONS.
    ------------------------------------------------

 NO OUTPUT CONTROL FOR STRESS PERIOD   18   TIME STEP    7
 
 SOLVING FOR HEAD 
                                                   Max.-Head-Change                         Max.-Flux-Residual
  Residual-Control   Outer-Iter.   Inner-Iter.     Column Row Layer    Maximum-Head-Change  Column Row Layer    Maximum-Flux-Residual          L2-NORM 
          0                 1           2             4    7     1      -0.1330993625E-01       4    7    1        -0.6986057921E+00      0.1610823076E+01
          0                 2           2             4    7     1       0.1294691835E-02       4    7    1         0.6986044773E-01      0.1609445678E+00
          0                 3           1             4    7     1      -0.8816373415E-04       4    7    1        -0.4890234696E-02      0.1125341417E-01

    ------------------------------------------------
       NWT REQUIRED            3 OUTER ITERATIONS 
       AND A TOTAL OF          5 INNER ITERATIONS.
    ------------------------------------------------

 NO OUTPUT CONTROL FOR STRESS PERIOD   18   TIME STEP    8
 
 SOLVING FOR HEAD 
                                                   Max.-Head-Change                         Max.-Flux-Residual
  Residual-Control   Outer-Iter.   Inner-Iter.     Column Row Layer    Maximum-Head-Change  Column Row Layer    Maximum-Flux-Residual          L2-NORM 
          0                 1           2             4    7     1      -0.1317275749E-01       4    7    1        -0.6915751557E+00      0.1579653000E+01
          0                 2           2             4    7     1       0.1281348021E-02       4    7    1         0.6915737976E-01      0.1578505318E+00
          0                 3           1             4    7     1      -0.8725507055E-04       4    7    1        -0.4841019951E-02      0.1103901363E-01

    ------------------------------------------------
       NWT REQUIRED            3 OUTER ITERATIONS 
       AND A TOTAL OF          5 INNER ITERATIONS.
    ------------------------------------------------

 NO OUTPUT CONTROL FOR STRESS PERIOD   18   TIME STEP    9
 
 SOLVING FOR HEAD 
                                                   Max.-Head-Change                         Max.-Flux-Residual
  Residual-Control   Outer-Iter.   Inner-Iter.     Column Row Layer    Maximum-Head-Change  Column Row Layer    Maximum-Flux-Residual          L2-NORM 
          0                 1           2             4    7     1      -0.1303390024E-01       4    7    1        -0.6844403626E+00      0.1550307872E+01
          0                 2           2             4    7     1       0.1267840947E-02       4    7    1         0.6844389687E-01      0.1549345010E+00
          0                 3           1             4    7     1      -0.8633528934E-04       4    7    1        -0.4791076156E-02      0.1083655781E-01

    ------------------------------------------------
       NWT REQUIRED            3 OUTER ITERATIONS 
       AND A TOTAL OF          5 INNER ITERATIONS.
    ------------------------------------------------

 NO OUTPUT CONTROL FOR STRESS PERIOD   18   TIME STEP   10
 
 SOLVING FOR HEAD 
                                                   Max.-Head-Change                         Max.-Flux-Residual
  Residual-Control   Outer-Iter.   Inner-Iter.     Column Row Layer    Maximum-Head-Change  Column Row Layer    Maximum-Flux-Residual          L2-NORM 
          0                 1           2             4    7     1      -0.1289380939E-01       4    7    1        -0.6772259158E+00      0.1522589867E+01
          0                 2           2             4    7     1       0.1254213887E-02       4    7    1         0.6772244927E-01      0.1521785546E+00
          0                 3           1             4    7     1      -0.8540733794E-04       4    7    1        -0.4740574843E-02      0.1064525805E-01

    ------------------------------------------------
       NWT REQUIRED            3 OUTER ITERATIONS 
       AND A TOTAL OF          5 INNER ITERATIONS.
    ------------------------------------------------

 NO OUTPUT CONTROL FOR STRESS PERIOD   18   TIME STEP   11
 
 SOLVING FOR HEAD 
                                                   Max.-Head-Change                         Max.-Flux-Residual
  Residual-Control   Outer-Iter.   Inner-Iter.     Column Row Layer    Maximum-Head-Change  Column Row Layer    Maximum-Flux-Residual          L2-NORM 
          0                 1           2             4    7     1      -0.1275275873E-01       4    7    1        -0.6699475136E+00      0.1496299072E+01
          0                 2           2             4    7     1       0.1240493472E-02       4    7    1         0.6699460673E-01      0.1495621824E+00
          0                 3           1             4    7     1      -0.8447302878E-04       4    7    1        -0.4689625871E-02      0.1046310179E-01

    ------------------------------------------------
       NWT REQUIRED            3 OUTER ITERATIONS 
       AND A TOTAL OF          5 INNER ITERATIONS.
    ------------------------------------------------

 NO OUTPUT CONTROL FOR STRESS PERIOD   18   TIME STEP   12
 
 SOLVING FOR HEAD 
                                                   Max.-Head-Change                         Max.-Flux-Residual
  Residual-Control   Outer-Iter.   Inner-Iter.     Column Row Layer    Maximum-Head-Change  Column Row Layer    Maximum-Flux-Residual          L2-NORM 
          0                 1           2             4    7     1      -0.1261100567E-01       4    7    1        -0.6626193502E+00      0.1471305493E+01
          0                 2           2             4    7     1       0.1226704741E-02       4    7    1         0.6626178860E-01      0.1470734167E+00
          0                 3           1             4    7     1      -0.8353406757E-04       4    7    1        -0.4638328583E-02      0.1028995444E-01

    ------------------------------------------------
       NWT REQUIRED            3 OUTER ITERATIONS 
       AND A TOTAL OF          5 INNER ITERATIONS.
    ------------------------------------------------

 NO OUTPUT CONTROL FOR STRESS PERIOD   18   TIME STEP   13
 
 SOLVING FOR HEAD 
                                                   Max.-Head-Change                         Max.-Flux-Residual
  Residual-Control   Outer-Iter.   Inner-Iter.     Column Row Layer    Maximum-Head-Change  Column Row Layer    Maximum-Flux-Residual          L2-NORM 
          0                 1           2             4    7     1      -0.1246878655E-01       4    7    1        -0.6552547730E+00      0.1447481778E+01
          0                 2           2             4    7     1       0.1212870682E-02       4    7    1         0.6552532958E-01      0.1446999674E+00
          0                 3           1             4    7     1      -0.8259201991E-04       4    7    1        -0.4586776459E-02      0.1012465237E-01

    ------------------------------------------------
       NWT REQUIRED            3 OUTER ITERATIONS 
       AND A TOTAL OF          5 INNER ITERATIONS.
    ------------------------------------------------

 NO OUTPUT CONTROL FOR STRESS PERIOD   18   TIME STEP   14
 
 SOLVING FOR HEAD 
                                                   Max.-Head-Change                         Max.-Flux-Residual
  Residual-Control   Outer-Iter.   Inner-Iter.     Column Row Layer    Maximum-Head-Change  Column Row Layer    Maximum-Flux-Residual          L2-NORM 
          0                 1           2             4    7     1      -0.1232632248E-01       4    7    1        -0.6478660349E+00      0.1424725700E+01
          0                 2           2             4    7     1       0.1199012802E-02       4    7    1         0.6478645492E-01      0.1424315964E+00
          0                 3           1             4    7     1      -0.8164834938E-04       4    7    1        -0.4535055199E-02      0.9966462075E-02

    ------------------------------------------------
       NWT REQUIRED            3 OUTER ITERATIONS 
       AND A TOTAL OF          5 INNER ITERATIONS.
    ------------------------------------------------

 NO OUTPUT CONTROL FOR STRESS PERIOD   18   TIME STEP   15
 
 SOLVING FOR HEAD 
                                                   Max.-Head-Change                         Max.-Flux-Residual
  Residual-Control   Outer-Iter.   Inner-Iter.     Column Row Layer    Maximum-Head-Change  Column Row Layer    Maximum-Flux-Residual          L2-NORM 
          0                 1           2             4    7     1      -0.1218368030E-01       4    7    1        -0.6404572319E+00      0.1402945171E+01
          0                 2           2             4    7     1       0.1185137604E-02       4    7    1         0.6404557419E-01      0.1402598246E+00
          0                 3           1             4    7     1      -0.8070350033E-04       4    7    1        -0.4483193545E-02      0.9815121425E-02

    ------------------------------------------------
       NWT REQUIRED            3 OUTER ITERATIONS 
       AND A TOTAL OF          5 INNER ITERATIONS.
    ------------------------------------------------

 NO OUTPUT CONTROL FOR STRESS PERIOD   18   TIME STEP   16
 
 SOLVING FOR HEAD 
                                                   Max.-Head-Change                         Max.-Flux-Residual
  Residual-Control   Outer-Iter.   Inner-Iter.     Column Row Layer    Maximum-Head-Change  Column Row Layer    Maximum-Flux-Residual          L2-NORM 
          0                 1           2             4    7     1      -0.1204132226E-01       4    7    1        -0.6330539353E+00      0.1382062791E+01
          0                 2           2             4    7     1       0.1171290049E-02       4    7    1         0.6330524446E-01      0.1381765896E+00
          0                 3           1             4    7     1      -0.7976053331E-04       4    7    1        -0.4431370443E-02      0.9669599807E-02

    ------------------------------------------------
       NWT REQUIRED            3 OUTER ITERATIONS 
       AND A TOTAL OF          5 INNER ITERATIONS.
    ------------------------------------------------

 NO OUTPUT CONTROL FOR STRESS PERIOD   18   TIME STEP   17
 
 SOLVING FOR HEAD 
                                                   Max.-Head-Change                         Max.-Flux-Residual
  Residual-Control   Outer-Iter.   Inner-Iter.     Column Row Layer    Maximum-Head-Change  Column Row Layer    Maximum-Flux-Residual          L2-NORM 
          0                 1           2             4    7     1      -0.1189914270E-01       4    7    1        -0.6256506378E+00      0.1362021093E+01
          0                 2           2             4    7     1       0.1157459861E-02       4    7    1         0.6256491494E-01      0.1361768305E+00
          0                 3           1             4    7     1      -0.7881874847E-04       4    7    1        -0.4379547352E-02      0.9530074814E-02

    ------------------------------------------------
       NWT REQUIRED            3 OUTER ITERATIONS 
       AND A TOTAL OF          5 INNER ITERATIONS.
    ------------------------------------------------

 NO OUTPUT CONTROL FOR STRESS PERIOD   18   TIME STEP   18
 
 SOLVING FOR HEAD 
                                                   Max.-Head-Change                         Max.-Flux-Residual
  Residual-Control   Outer-Iter.   Inner-Iter.     Column Row Layer    Maximum-Head-Change  Column Row Layer    Maximum-Flux-Residual          L2-NORM 
          0                 1           2             4    7     1      -0.1175757619E-01       4    7    1        -0.6182713348E+00      0.1342748952E+01
          0                 2           2             4    7     1       0.1143689310E-02       4    7    1         0.6182698518E-01      0.1342532245E+00
          0                 3           1             4    7     1      -0.7788102471E-04       4    7    1        -0.4327892227E-02      0.9395786191E-02

    ------------------------------------------------
       NWT REQUIRED            3 OUTER ITERATIONS 
       AND A TOTAL OF          5 INNER ITERATIONS.
    ------------------------------------------------

 NO OUTPUT CONTROL FOR STRESS PERIOD   18   TIME STEP   19
 
 SOLVING FOR HEAD 
                                                   Max.-Head-Change                         Max.-Flux-Residual
  Residual-Control   Outer-Iter.   Inner-Iter.     Column Row Layer    Maximum-Head-Change  Column Row Layer    Maximum-Flux-Residual          L2-NORM 
          0                 1           2             4    7     1      -0.1161648391E-01       4    7    1        -0.6109090848E+00      0.1324194428E+01
          0                 2           2             4    7     1       0.1129964892E-02       4    7    1         0.6109076096E-01      0.1324008119E+00
          0                 3           1             4    7     1      -0.7694644314E-04       4    7    1        -0.4276356531E-02      0.9266356695E-02

    ------------------------------------------------
       NWT REQUIRED            3 OUTER ITERATIONS 
       AND A TOTAL OF          5 INNER ITERATIONS.
    ------------------------------------------------

 NO OUTPUT CONTROL FOR STRESS PERIOD   18   TIME STEP   20
 
 SOLVING FOR HEAD 
                                                   Max.-Head-Change                         Max.-Flux-Residual
  Residual-Control   Outer-Iter.   Inner-Iter.     Column Row Layer    Maximum-Head-Change  Column Row Layer    Maximum-Flux-Residual          L2-NORM 
          0                 1           2             4    7     1      -0.1147614449E-01       4    7    1        -0.6035787939E+00      0.1306329394E+01
          0                 2           2             4    7     1       0.1116313710E-02       4    7    1         0.6035773292E-01      0.1306168226E+00
          0                 3           1             4    7     1      -0.7601684804E-04       4    7    1        -0.4225044512E-02      0.9141877087E-02

    ------------------------------------------------
       NWT REQUIRED            3 OUTER ITERATIONS 
       AND A TOTAL OF          5 INNER ITERATIONS.
    ------------------------------------------------

 NO OUTPUT CONTROL FOR STRESS PERIOD   18   TIME STEP   21
 
 SOLVING FOR HEAD 
                                                   Max.-Head-Change                         Max.-Flux-Residual
  Residual-Control   Outer-Iter.   Inner-Iter.     Column Row Layer    Maximum-Head-Change  Column Row Layer    Maximum-Flux-Residual          L2-NORM 
          0                 1           2             4    7     1      -0.1133667250E-01       4    7    1        -0.5962875420E+00      0.1289096626E+01
          0                 2           2             4    7     1       0.1102746909E-02       4    7    1         0.5962860894E-01      0.1288956472E+00
          0                 3           1             4    7     1      -0.7509299878E-04       4    7    1        -0.4174005795E-02      0.9021459322E-02

    ------------------------------------------------
       NWT REQUIRED            3 OUTER ITERATIONS 
       AND A TOTAL OF          5 INNER ITERATIONS.
    ------------------------------------------------

 NO OUTPUT CONTROL FOR STRESS PERIOD   18   TIME STEP   22
 
 SOLVING FOR HEAD 
                                                   Max.-Head-Change                         Max.-Flux-Residual
  Residual-Control   Outer-Iter.   Inner-Iter.     Column Row Layer    Maximum-Head-Change  Column Row Layer    Maximum-Flux-Residual          L2-NORM 
          0                 1           2             4    7     1      -0.1119818071E-01       4    7    1        -0.5890412681E+00      0.1272467475E+01
          0                 2           2             4    7     1       0.1089275456E-02       4    7    1         0.5890398297E-01      0.1272346228E+00
          0                 3           1             4    7     1      -0.7417564300E-04       4    7    1        -0.4123281958E-02      0.8905271476E-02

    ------------------------------------------------
       NWT REQUIRED            3 OUTER ITERATIONS 
       AND A TOTAL OF          5 INNER ITERATIONS.
    ------------------------------------------------

 NO OUTPUT CONTROL FOR STRESS PERIOD   18   TIME STEP   23
 
 SOLVING FOR HEAD 
                                                   Max.-Head-Change                         Max.-Flux-Residual
  Residual-Control   Outer-Iter.   Inner-Iter.     Column Row Layer    Maximum-Head-Change  Column Row Layer    Maximum-Flux-Residual          L2-NORM 
          0                 1           2             4    7     1      -0.1106076388E-01       4    7    1        -0.5818458191E+00      0.1256410491E+01
          0                 2           2             4    7     1       0.1075908571E-02       4    7    1         0.5818443963E-01      0.1256304206E+00
          0                 3           1             4    7     1      -0.7326540730E-04       4    7    1        -0.4072913893E-02      0.8793159513E-02

    ------------------------------------------------
       NWT REQUIRED            3 OUTER ITERATIONS 
       AND A TOTAL OF          5 INNER ITERATIONS.
    ------------------------------------------------

 NO OUTPUT CONTROL FOR STRESS PERIOD   18   TIME STEP   24
 
 SOLVING FOR HEAD 
                                                   Max.-Head-Change                         Max.-Flux-Residual
  Residual-Control   Outer-Iter.   Inner-Iter.     Column Row Layer    Maximum-Head-Change  Column Row Layer    Maximum-Flux-Residual          L2-NORM 
          0                 1           2             4    7     1      -0.1092437003E-01       4    7    1        -0.5746987421E+00      0.1240880674E+01
          0                 2           2             4    7     1       0.1062641195E-02       4    7    1         0.5746973366E-01      0.1240788708E+00
          0                 3           1             4    7     1      -0.7236194756E-04       4    7    1        -0.4022884423E-02      0.8684694192E-02

    ------------------------------------------------
       NWT REQUIRED            3 OUTER ITERATIONS 
       AND A TOTAL OF          5 INNER ITERATIONS.
    ------------------------------------------------

 NO OUTPUT CONTROL FOR STRESS PERIOD   18   TIME STEP   25
 
 SOLVING FOR HEAD 
                                                   Max.-Head-Change                         Max.-Flux-Residual
  Residual-Control   Outer-Iter.   Inner-Iter.     Column Row Layer    Maximum-Head-Change  Column Row Layer    Maximum-Flux-Residual          L2-NORM 
          0                 1           2             4    7     1      -0.1078936141E-01       4    7    1        -0.5676194416E+00      0.1225875923E+01
          0                 2           2             4    7     1       0.1049508566E-02       4    7    1         0.5676180545E-01      0.1225791784E+00
          0                 3           1             4    7     1      -0.7146766399E-04       4    7    1        -0.3973329399E-02      0.8579878034E-02

    ------------------------------------------------
       NWT REQUIRED            3 OUTER ITERATIONS 
       AND A TOTAL OF          5 INNER ITERATIONS.
    ------------------------------------------------

 NO OUTPUT CONTROL FOR STRESS PERIOD   18   TIME STEP   26
 
 SOLVING FOR HEAD 
                                                   Max.-Head-Change                         Max.-Flux-Residual
  Residual-Control   Outer-Iter.   Inner-Iter.     Column Row Layer    Maximum-Head-Change  Column Row Layer    Maximum-Flux-Residual          L2-NORM 
          0                 1           2             4    7     1      -0.1065566135E-01       4    7    1        -0.5606045997E+00      0.1211349812E+01
          0                 2           2             4    7     1       0.1036503226E-02       4    7    1         0.5606032317E-01      0.1211278527E+00
          0                 3           1             4    7     1      -0.7058204858E-04       4    7    1        -0.3924225620E-02      0.8478325430E-02

    ------------------------------------------------
       NWT REQUIRED            3 OUTER ITERATIONS 
       AND A TOTAL OF          5 INNER ITERATIONS.
    ------------------------------------------------

 NO OUTPUT CONTROL FOR STRESS PERIOD   18   TIME STEP   27
 
 SOLVING FOR HEAD 
                                                   Max.-Head-Change                         Max.-Flux-Residual
  Residual-Control   Outer-Iter.   Inner-Iter.     Column Row Layer    Maximum-Head-Change  Column Row Layer    Maximum-Flux-Residual          L2-NORM 
          0                 1           2             4    7     1      -0.1052333577E-01       4    7    1        -0.5536576074E+00      0.1197296098E+01
          0                 2           2             4    7     1       0.1023631585E-02       4    7    1         0.5536562596E-01      0.1197233461E+00
          0                 3           1             4    7     1      -0.6970553729E-04       4    7    1        -0.3875596761E-02      0.8380077012E-02

    ------------------------------------------------
       NWT REQUIRED            3 OUTER ITERATIONS 
       AND A TOTAL OF          5 INNER ITERATIONS.
    ------------------------------------------------

 NO OUTPUT CONTROL FOR STRESS PERIOD   18   TIME STEP   28
 
 SOLVING FOR HEAD 
                                                   Max.-Head-Change                         Max.-Flux-Residual
  Residual-Control   Outer-Iter.   Inner-Iter.     Column Row Layer    Maximum-Head-Change  Column Row Layer    Maximum-Flux-Residual          L2-NORM 
          0                 1           2             4    7     1      -0.1039243361E-01       4    7    1        -0.5467818827E+00      0.1183676466E+01
          0                 2           2             4    7     1       0.1010898406E-02       4    7    1         0.5467805557E-01      0.1183621064E+00
          0                 3           1             4    7     1      -0.6883845470E-04       4    7    1        -0.3827466796E-02      0.8284861717E-02

    ------------------------------------------------
       NWT REQUIRED            3 OUTER ITERATIONS 
       AND A TOTAL OF          5 INNER ITERATIONS.
    ------------------------------------------------

 NO OUTPUT CONTROL FOR STRESS PERIOD   18   TIME STEP   29
 
 SOLVING FOR HEAD 
                                                   Max.-Head-Change                         Max.-Flux-Residual
  Residual-Control   Outer-Iter.   Inner-Iter.     Column Row Layer    Maximum-Head-Change  Column Row Layer    Maximum-Flux-Residual          L2-NORM 
          0                 1           2             4    7     1      -0.1026287404E-01       4    7    1        -0.5399725972E+00      0.1170483747E+01
          0                 2           2             4    7     1       0.9982958264E-03       4    7    1         0.5399712918E-01      0.1170434766E+00
          0                 3           1             4    7     1      -0.6798026570E-04       4    7    1        -0.3779801933E-02      0.8192589635E-02

    ------------------------------------------------
       NWT REQUIRED            3 OUTER ITERATIONS 
       AND A TOTAL OF          5 INNER ITERATIONS.
    ------------------------------------------------

 NO OUTPUT CONTROL FOR STRESS PERIOD   18   TIME STEP   30



 STREAM LISTING     PERIOD     18   STEP       30

 LAYER ROW COL. STREAM  RCH.  FLOW INTO     FLOW TO   FLOW OUT OF   OVRLND.     DIRECT     STREAM       STREAM     STREAM     STREAM   STREAMBED  STREAMBED
                SEG.NO.  NO.  STRM. RCH.    AQUIFER    STRM. RCH.    RUNOFF     PRECIP       ET          HEAD       DEPTH      WIDTH   CONDCTNC.   GRADIENT

   1    1    1     1     1    6.3001E+01  3.8237E-01   6.2619E+01  0.000E+00  0.000E+00  0.000E+00  1.09461E+03  1.562E+00  1.863E+01  8.382E-02  1.521E+00
   1    2    2     1     2    6.2619E+01  5.9218E-01   6.2026E+01  0.000E+00  0.000E+00  0.000E+00  1.08961E+03  1.556E+00  1.857E+01  1.300E-01  1.519E+00
   1    3    3     1     3    6.2026E+01  5.0506E-01   6.1521E+01  0.000E+00  0.000E+00  0.000E+00  1.08397E+03  1.549E+00  1.850E+01  1.110E-01  1.516E+00
   1    3    4     1     4    6.1521E+01  4.6511E-01   6.1056E+01  0.000E+00  0.000E+00  0.000E+00  1.07895E+03  1.543E+00  1.845E+01  1.024E-01  1.514E+00
   1    4    5     2     1    5.9056E+01  3.9145E-01   5.8665E+01  0.000E+00  0.000E+00  0.000E+00  1.07395E+03  2.019E+00  1.200E+01  7.800E-02  1.673E+00
   1    5    6     2     2    5.8665E+01  3.0069E-01   5.8364E+01  0.000E+00  0.000E+00  0.000E+00  1.06852E+03  2.011E+00  1.200E+01  6.000E-02  1.670E+00
   1    6    6     2     3    5.8364E+01  3.0031E-01   5.8064E+01  0.000E+00  0.000E+00  0.000E+00  1.06380E+03  2.005E+00  1.200E+01  6.000E-02  1.668E+00
   1    7    6     2     4    5.8064E+01  2.9994E-01   5.7764E+01  0.000E+00  0.000E+00  0.000E+00  1.05907E+03  1.999E+00  1.200E+01  6.000E-02  1.666E+00
   1    8    6     2     5    5.7764E+01  2.9957E-01   5.7464E+01  0.000E+00  0.000E+00  0.000E+00  1.05435E+03  1.993E+00  1.200E+01  6.000E-02  1.664E+00
   1    3    5     3     1    2.0000E+00  2.8252E-01   1.7175E+00  0.000E+00  0.000E+00  0.000E+00  1.07555E+03  1.909E+00  9.636E+00  7.227E-02  1.955E+00
   1    3    6     3     2    1.7175E+00  2.4905E-01   1.4684E+00  0.000E+00  0.000E+00  0.000E+00  1.07264E+03  1.727E+00  8.909E+00  6.682E-02  1.864E+00
   1    3    7     3     3    1.4684E+00  1.9718E-01   1.2712E+00  0.000E+00  0.000E+00  0.000E+00  1.06987E+03  1.555E+00  8.218E+00  5.547E-02  1.777E+00
   1    4    8     3     4    1.2712E+00  2.2567E-01   1.0456E+00  0.000E+00  0.000E+00  0.000E+00  1.06682E+03  1.364E+00  7.455E+00  6.709E-02  1.682E+00
   1    5    8     3     5    1.0456E+00  1.5790E-01   8.8768E-01  0.000E+00  0.000E+00  0.000E+00  1.06362E+03  1.164E+00  6.655E+00  4.991E-02  1.582E+00
   1    6    8     3     6    8.8768E-01  5.5980E-02   8.3170E-01  0.000E+00  0.000E+00  0.000E+00  1.06158E+03  1.036E+00  6.145E+00  1.844E-02  1.518E+00
   1    5   10     4     1    1.0000E+01  9.0919E-02   9.9091E+00  0.000E+00  0.000E+00  0.000E+00  1.07836E+03  6.368E-01  1.000E+01  2.500E-02  1.212E+00
   1    5    9     4     2    9.9091E+00  1.8158E-01   9.7275E+00  0.000E+00  0.000E+00  0.000E+00  1.07154E+03  6.315E-01  1.000E+01  5.000E-02  1.211E+00
   1    6    8     4     3    9.7275E+00  1.2689E-01   9.6006E+00  0.000E+00  0.000E+00  0.000E+00  1.06381E+03  6.256E-01  1.000E+01  3.500E-02  1.209E+00
   1    6    8     5     1    1.0432E+01  2.2686E-01   1.0205E+01  0.000E+00  0.000E+00  0.000E+00  1.05868E+03  6.790E-01  1.542E+01  6.166E-02  1.226E+00
   1    7    7     5     2    1.0205E+01  2.7894E-01   9.9265E+00  0.000E+00  0.000E+00  0.000E+00  1.05417E+03  6.732E-01  1.519E+01  7.594E-02  1.224E+00
   1    8    7     5     3    9.9265E+00  1.9221E-01   9.7343E+00  0.000E+00  0.000E+00  0.000E+00  1.04992E+03  6.676E-01  1.497E+01  5.241E-02  1.223E+00
   1    8    6     5     4    9.7343E+00  1.3577E-01   9.5985E+00  0.000E+00  0.000E+00  0.000E+00  1.04691E+03  6.637E-01  1.482E+01  3.706E-02  1.221E+00
   1    9    6     6     1    6.7063E+01  3.1225E-01   6.6751E+01  0.000E+00  0.000E+00  0.000E+00  1.04493E+03  2.204E+00  1.200E+01  6.000E-02  1.735E+00
   1   10    7     6     2    6.6751E+01  3.1188E-01   6.6439E+01  0.000E+00  0.000E+00  0.000E+00  1.04038E+03  2.198E+00  1.200E+01  6.000E-02  1.733E+00
   1   11    7     6     3    6.6439E+01  3.1151E-01   6.6127E+01  0.000E+00  0.000E+00  0.000E+00  1.03583E+03  2.192E+00  1.200E+01  6.000E-02  1.731E+00
   1   12    7     6     4    6.6127E+01  3.1114E-01   6.5816E+01  0.000E+00  0.000E+00  0.000E+00  1.03128E+03  2.186E+00  1.200E+01  6.000E-02  1.729E+00
   1   13    7     6     5    6.5816E+01  2.3661E-02   6.5792E+01  0.000E+00  0.000E+00  0.000E+00  1.02809E+03  2.182E+00  1.200E+01  2.400E-02  3.286E-01
   1   14    9     7     1    1.5000E+02  1.3311E+00   1.4867E+02  0.000E+00  0.000E+00  0.000E+00  1.03987E+03  2.288E+00  5.529E+01  5.593E-01  7.933E-01
   1   13    8     7     2    1.4867E+02  1.8237E+00   1.4685E+02  0.000E+00  0.000E+00  0.000E+00  1.03478E+03  2.279E+00  5.526E+01  6.148E-01  9.888E-01
   1   13    7     7     3    1.4685E+02  1.4433E+00   1.4540E+02  0.000E+00  0.000E+00  0.000E+00  1.02969E+03  2.271E+00  5.522E+01  5.585E-01  8.615E-01
   1   13    6     8     1    2.1119E+02  1.0609E+00   2.1013E+02  0.000E+00  0.000E+00  0.000E+00  1.02507E+03  3.199E+00  4.639E+01  4.727E-01  7.480E-01
   1   13    5     8     2    2.1013E+02  2.5333E-01   2.0988E+02  0.000E+00  0.000E+00  0.000E+00  1.01882E+03  3.196E+00  4.634E+01  4.722E-01  1.788E-01
   1   13    4     8     3    2.0988E+02 -2.1932E+00   2.1207E+02  0.000E+00  0.000E+00  0.000E+00  1.01258E+03  3.201E+00  4.642E+01  4.730E+00 -1.546E-01
   1   13    3     8     4    2.1207E+02 -3.4548E+00   2.1553E+02  0.000E+00  0.000E+00  0.000E+00  1.00634E+03  3.217E+00  4.665E+01  4.754E+00 -2.422E-01
   1   13    2     8     5    2.1553E+02 -2.5495E+00   2.1808E+02  0.000E+00  0.000E+00  0.000E+00  1.00011E+03  3.234E+00  4.689E+01  4.779E+00 -1.778E-01
   1   13    1     8     6    2.1808E+02 -2.0013E+00   2.2008E+02  0.000E+00  0.000E+00  0.000E+00  9.95122E+02  3.247E+00  4.708E+01  2.878E+00 -2.318E-01





UNSATURATED ZONE PACKAGE VOLUMETRIC BUDGET FOR  TIME STEP    30 STRESS PERIOD   18
  ------------------------------------------------------------------------------



     CUMULATIVE VOLUMES      L**3       RATES FOR THIS TIME STEP      L**3/T
     ------------------                 ------------------------

           IN:                                      IN:
           ---                                      ---
        INFILTRATION =   502437140.0612          INFILTRATION =           8.3175

          OUT:                                     OUT:
          ----                                     ----
              UZF ET =   464436073.2536                UZF ET =           8.3175
        UZF RECHARGE =    37930890.8416          UZF RECHARGE =       0.0000E+00

            IN - OUT =       70175.9660              IN - OUT =       0.0000E+00

          STORAGE:                                 STORAGE:
          --------                                 --------
      STORAGE CHANGE =       70177.9937        STORAGE CHANGE =       8.5032E-15

 PERCENT DISCREPANCY IS DIFFERENCE BETWEEN IN-OUT MINUS CHANGE IN STORAGE
 DIVIDED BY THE AVERAGE OF IN AND OUT TIMES 100

 PERCENT DISCREPANCY =           0.00     PERCENT DISCREPANCY =           0.00






1
  VOLUMETRIC BUDGET FOR AGRICULTURAL FIELDS AT  END OF TIME STEP   30, STRESS PERIOD  18
  ------------------------------------------------------------------------------

     CUMULATIVE VOLUMES      L**3       RATES FOR THIS TIME STEP      L**3/T
     ------------------                 ------------------------

           IN:                                      IN:
           ---                                      ---
               AG WELLS  =   464471808.0000                 AG WELLS  =           7.4700
      DIVERSION SEGMENTS =           0.0000        DIVERSION SEGMENTS =           0.0000
           GW IRRIGATION =           0.0000             GW IRRIGATION =           0.0000
           SW IRRIGATION =           0.0000             SW IRRIGATION =           0.0000
        SYSTEM LOSSES GW =           0.0000          SYSTEM LOSSES GW =           0.0000
        SYSTEM LOSSES SW =           0.0000          SYSTEM LOSSES SW =           0.0000

                TOTAL IN =   464471808.0000                  TOTAL IN =           7.4700

          OUT:                                     OUT:
          ----                                     ----
               AG WELLS  =           0.0000                 AG WELLS  =           0.0000
      DIVERSION SEGMENTS =           0.0000        DIVERSION SEGMENTS =           0.0000
           GW IRRIGATION =   464471808.0000             GW IRRIGATION =           7.4700
           SW IRRIGATION =           0.0000             SW IRRIGATION =           0.0000
        SYSTEM LOSSES GW =           0.0000          SYSTEM LOSSES GW =           0.0000
        SYSTEM LOSSES SW =           0.0000          SYSTEM LOSSES SW =           0.0000

               TOTAL OUT =   464471808.0000                 TOTAL OUT =           7.4700

                IN - OUT =           0.0000                  IN - OUT =           0.0000

     PERCENT DISCREPANCY =           0.00         PERCENT DISCREPANCY =           0.00



1
  VOLUMETRIC BUDGET FOR ENTIRE MODEL AT END OF TIME STEP   30, STRESS PERIOD  18
  ------------------------------------------------------------------------------

     CUMULATIVE VOLUMES      L**3       RATES FOR THIS TIME STEP      L**3/T
     ------------------                 ------------------------

           IN:                                      IN:
           ---                                      ---
             STORAGE     =   623331776.0000               STORAGE     =           5.4667
       CONSTANT HEAD     =           0.0000         CONSTANT HEAD     =           0.0000
     HEAD DEP BOUNDS     =    12785397.0000       HEAD DEP BOUNDS     =           0.2854
      STREAM LEAKAGE     =   561945408.0000        STREAM LEAKAGE     =          13.1209
        UZF RECHARGE     =    37930912.0000          UZF RECHARGE     =           0.0000
               GW ET     =           0.0000                 GW ET     =           0.0000
     SURFACE LEAKAGE     =           0.0000       SURFACE LEAKAGE     =           0.0000
           AG WELLS      =           0.0000             AG WELLS      =           0.0000

                TOTAL IN =  1235993472.0000                  TOTAL IN =          18.8731

          OUT:                                     OUT:
          ----                                     ----
             STORAGE     =   281192864.0000               STORAGE     =           0.6348
       CONSTANT HEAD     =           0.0000         CONSTANT HEAD     =           0.0000
     HEAD DEP BOUNDS     =    13199329.0000       HEAD DEP BOUNDS     =           0.2970
      STREAM LEAKAGE     =   461729664.0000        STREAM LEAKAGE     =          10.1988
        UZF RECHARGE     =           0.0000          UZF RECHARGE     =           0.0000
               GW ET     =    15398496.0000                 GW ET     =           0.2711
     SURFACE LEAKAGE     =           0.0000       SURFACE LEAKAGE     =           0.0000
           AG WELLS      =   464471808.0000             AG WELLS      =           7.4700

               TOTAL OUT =  1235992192.0000                 TOTAL OUT =          18.8717

                IN - OUT =        1280.0000                  IN - OUT =       1.3866E-03

     PERCENT DISCREPANCY =           0.00         PERCENT DISCREPANCY =           0.01






         TIME SUMMARY AT END OF TIME STEP   30 IN STRESS PERIOD   18
                    SECONDS     MINUTES      HOURS       DAYS        YEARS
                    -----------------------------------------------------------
   TIME STEP LENGTH  87667.      1461.1      24.352      1.0147     2.77799E-03
 STRESS PERIOD TIME 2.63000E+06  43833.      730.56      30.440     8.33397E-02
         TOTAL TIME 4.47965E+07 7.46608E+05  12443.      518.48      1.4195    
1
1
                            STRESS PERIOD NO.   19, LENGTH =   2630000.    
                            -----------------------------------------------

                              NUMBER OF TIME STEPS =    30

                               MULTIPLIER FOR DELT =     1.000

                            INITIAL TIME STEP SIZE =   87666.66    

 REUSING NON-PARAMETER GHB CELLS FROM LAST STRESS PERIOD

      2 GHB CELLS

 REUSING STREAM SEGMENT DATA FROM LAST STRESS PERIOD



            AREAL INFILTRATION RATE
 READING ON UNIT   19 WITH FORMAT: (FREE)              

            1           2           3           4           5           6           7           8           9          10
 ........................................................................................................................
   1   1.0000E-10  2.0000E-10   0.000       0.000       0.000       0.000       0.000       0.000       0.000       0.000    
   2   2.0000E-10  1.0000E-10  2.0000E-10   0.000       0.000      8.0000E-10  8.0000E-10  5.0000E-10   0.000       0.000    
   3    0.000      5.0000E-10  1.0000E-10  1.0000E-10  8.0000E-10  8.0000E-10  5.0000E-10  5.0000E-10   0.000       0.000    
   4   8.0000E-10  5.0000E-10  1.0000E-10  1.0000E-10  1.0000E-10  1.0000E-10  1.0000E-10  1.0000E-10  2.0000E-10   0.000    
   5   8.0000E-10  5.0000E-10  1.0000E-10  1.0000E-10  1.0000E-10  1.0000E-10  1.0000E-10  1.0000E-10  1.0000E-10  1.0000E-10
   6   8.0000E-10  5.0000E-10  5.0000E-10  2.0000E-10  2.0000E-10  1.0000E-10  1.0000E-10  1.0000E-10  1.0000E-10  5.0000E-10
   7   8.0000E-10  5.0000E-10  5.0000E-10  2.0000E-10  2.0000E-10  1.0000E-10  1.0000E-10  2.0000E-10  2.0000E-10   0.000    
   8    0.000      5.0000E-10  5.0000E-10  2.0000E-10  2.0000E-10  1.0000E-10  1.0000E-10  2.0000E-10  5.0000E-10   0.000    
   9    0.000      5.0000E-10  5.0000E-10  2.0000E-10  2.0000E-10  1.0000E-10  1.0000E-10  2.0000E-10  5.0000E-10   0.000    
  10    0.000      5.0000E-10  5.0000E-10  2.0000E-10  2.0000E-10  1.0000E-10  1.0000E-10  2.0000E-10  5.0000E-10  8.0000E-10
  11    0.000      1.0000E-10  1.0000E-10  1.0000E-10  1.0000E-10  1.0000E-10  1.0000E-10  2.0000E-10  5.0000E-10   0.000    
  12   1.0000E-10  1.0000E-10  1.0000E-10  1.0000E-10  1.0000E-10  1.0000E-10  1.0000E-10  1.0000E-10  2.0000E-10   0.000    
  13   1.0000E-10  1.0000E-10  2.0000E-10  2.0000E-10  2.0000E-10  2.0000E-10  2.0000E-10  1.0000E-10  1.0000E-10   0.000    
  14    0.000      2.0000E-10  5.0000E-10  5.0000E-10  5.0000E-10  5.0000E-10  5.0000E-10  2.0000E-10  1.0000E-10   0.000    
  15    0.000       0.000      8.0000E-10  8.0000E-10  8.0000E-10  8.0000E-10   0.000       0.000       0.000       0.000    

                  ET RATE =  1.500000E-07

 USING ET EXTINCTION DEPTH FROM PREVIOUS STRESS PERIOD. CURRENT PERIOD IS:      19

 USING EXTINCTION WATER CONTENT FROM PREVIOUS STRESS PERIOD. CURRENT PERIOD IS:      19

 USING AIR ENTRY PRESSURE FROM PREVIOUS STRESS PERIOD. CURRENT PERIOD IS:      19

 USING ROOT PRESSURE HEAD FROM PREVIOUS STRESS PERIOD. CURRENT PERIOD IS:      19

 USING ROOT ACTIVITY FROM PREVIOUS STRESS PERIOD. CURRENT PERIOD IS:      19

 PROCESSING AG STRESS PERIOD DATA

 READING AG STRESS PERIOD DATA

 READING IRRIGATION WELL

 END PROCESSING AG STRESS PERIOD DATA OPTIONS
 
 SOLVING FOR HEAD 
                                                   Max.-Head-Change                         Max.-Flux-Residual
  Residual-Control   Outer-Iter.   Inner-Iter.     Column Row Layer    Maximum-Head-Change  Column Row Layer    Maximum-Flux-Residual          L2-NORM 
          0                 1           2             4    7     1      -0.5801799559E-01       4    7    1        -0.3033247777E+01      0.7209837198E+01
          0                 2           2             4    7     1       0.5643536219E-02       4    7    1         0.3033227444E+00      0.7208814182E+00
          0                 3           2             4    7     1      -0.3843041706E-03       4    7    1        -0.2123261825E-01      0.5045316037E-01
          0                 4           1             4    7     1       0.1529182145E-04       4    7    1         0.8684152165E-03      0.2063020178E-02

    ------------------------------------------------
       NWT REQUIRED            4 OUTER ITERATIONS 
       AND A TOTAL OF          7 INNER ITERATIONS.
    ------------------------------------------------

 OUTPUT CONTROL FOR STRESS PERIOD   19   TIME STEP    1
    PRINT BUDGET
    SAVE BUDGET
 UBDSV1 SAVING "         STORAGE" ON UNIT 102 AT TIME STEP  1, STRESS PERIOD  19
 UBDSV2 SAVING "   CONSTANT HEAD" ON UNIT 102 AT TIME STEP  1, STRESS PERIOD  19
 UBDSV1 SAVING "FLOW RIGHT FACE " ON UNIT 102 AT TIME STEP  1, STRESS PERIOD  19
 UBDSV1 SAVING "FLOW FRONT FACE " ON UNIT 102 AT TIME STEP  1, STRESS PERIOD  19

  HEAD DEP BOUNDS   PERIOD   19   STEP     1
 BOUNDARY      1   LAYER   1   ROW    13   COL     1   RATE   -0.296990    
 BOUNDARY      2   LAYER   1   ROW    14   COL     9   RATE    0.285441    



 STREAM LISTING     PERIOD     19   STEP        1

 LAYER ROW COL. STREAM  RCH.  FLOW INTO     FLOW TO   FLOW OUT OF   OVRLND.     DIRECT     STREAM       STREAM     STREAM     STREAM   STREAMBED  STREAMBED
                SEG.NO.  NO.  STRM. RCH.    AQUIFER    STRM. RCH.    RUNOFF     PRECIP       ET          HEAD       DEPTH      WIDTH   CONDCTNC.   GRADIENT

   1    1    1     1     1    5.8202E+01  3.6567E-01   5.7837E+01  0.000E+00  0.000E+00  0.000E+00  1.09455E+03  1.503E+00  1.804E+01  8.120E-02  1.501E+00
   1    2    2     1     2    5.7837E+01  5.6626E-01   5.7270E+01  0.000E+00  0.000E+00  0.000E+00  1.08956E+03  1.498E+00  1.799E+01  1.259E-01  1.499E+00
   1    3    3     1     3    5.7270E+01  4.8288E-01   5.6788E+01  0.000E+00  0.000E+00  0.000E+00  1.08391E+03  1.491E+00  1.792E+01  1.075E-01  1.497E+00
   1    3    4     1     4    5.6788E+01  4.4463E-01   5.6343E+01  0.000E+00  0.000E+00  0.000E+00  1.07889E+03  1.485E+00  1.786E+01  9.913E-02  1.495E+00
   1    4    5     2     1    5.4343E+01  3.8376E-01   5.3959E+01  0.000E+00  0.000E+00  0.000E+00  1.07385E+03  1.920E+00  1.200E+01  7.800E-02  1.640E+00
   1    5    6     2     2    5.3959E+01  2.9477E-01   5.3664E+01  0.000E+00  0.000E+00  0.000E+00  1.06842E+03  1.913E+00  1.200E+01  6.000E-02  1.638E+00
   1    6    6     2     3    5.3664E+01  2.9439E-01   5.3370E+01  0.000E+00  0.000E+00  0.000E+00  1.06370E+03  1.907E+00  1.200E+01  6.000E-02  1.636E+00
   1    7    6     2     4    5.3370E+01  2.9401E-01   5.3076E+01  0.000E+00  0.000E+00  0.000E+00  1.05898E+03  1.900E+00  1.200E+01  6.000E-02  1.633E+00
   1    8    6     2     5    5.3076E+01  2.9364E-01   5.2782E+01  0.000E+00  0.000E+00  0.000E+00  1.05425E+03  1.894E+00  1.200E+01  6.000E-02  1.631E+00
   1    3    5     3     1    2.0000E+00  2.8252E-01   1.7175E+00  0.000E+00  0.000E+00  0.000E+00  1.07555E+03  1.909E+00  9.636E+00  7.227E-02  1.955E+00
   1    3    6     3     2    1.7175E+00  2.4905E-01   1.4684E+00  0.000E+00  0.000E+00  0.000E+00  1.07264E+03  1.727E+00  8.909E+00  6.682E-02  1.864E+00
   1    3    7     3     3    1.4684E+00  1.9718E-01   1.2712E+00  0.000E+00  0.000E+00  0.000E+00  1.06987E+03  1.555E+00  8.218E+00  5.547E-02  1.777E+00
   1    4    8     3     4    1.2712E+00  2.2567E-01   1.0456E+00  0.000E+00  0.000E+00  0.000E+00  1.06682E+03  1.364E+00  7.455E+00  6.709E-02  1.682E+00
   1    5    8     3     5    1.0456E+00  1.5790E-01   8.8768E-01  0.000E+00  0.000E+00  0.000E+00  1.06362E+03  1.164E+00  6.655E+00  4.991E-02  1.582E+00
   1    6    8     3     6    8.8768E-01  5.5980E-02   8.3170E-01  0.000E+00  0.000E+00  0.000E+00  1.06158E+03  1.036E+00  6.145E+00  1.844E-02  1.518E+00
   1    5   10     4     1    1.0000E+01  9.0919E-02   9.9091E+00  0.000E+00  0.000E+00  0.000E+00  1.07836E+03  6.368E-01  1.000E+01  2.500E-02  1.212E+00
   1    5    9     4     2    9.9091E+00  1.8158E-01   9.7275E+00  0.000E+00  0.000E+00  0.000E+00  1.07154E+03  6.315E-01  1.000E+01  5.000E-02  1.211E+00
   1    6    8     4     3    9.7275E+00  1.2689E-01   9.6006E+00  0.000E+00  0.000E+00  0.000E+00  1.06381E+03  6.256E-01  1.000E+01  3.500E-02  1.209E+00
   1    6    8     5     1    1.0432E+01  2.2686E-01   1.0205E+01  0.000E+00  0.000E+00  0.000E+00  1.05868E+03  6.790E-01  1.542E+01  6.166E-02  1.226E+00
   1    7    7     5     2    1.0205E+01  2.7894E-01   9.9265E+00  0.000E+00  0.000E+00  0.000E+00  1.05417E+03  6.732E-01  1.519E+01  7.594E-02  1.224E+00
   1    8    7     5     3    9.9265E+00  1.9221E-01   9.7343E+00  0.000E+00  0.000E+00  0.000E+00  1.04992E+03  6.676E-01  1.497E+01  5.241E-02  1.223E+00
   1    8    6     5     4    9.7343E+00  1.3577E-01   9.5985E+00  0.000E+00  0.000E+00  0.000E+00  1.04691E+03  6.637E-01  1.482E+01  3.706E-02  1.221E+00
   1    9    6     6     1    6.2381E+01  3.0662E-01   6.2074E+01  0.000E+00  0.000E+00  0.000E+00  1.04484E+03  2.110E+00  1.200E+01  6.000E-02  1.703E+00
   1   10    7     6     2    6.2074E+01  3.0625E-01   6.1768E+01  0.000E+00  0.000E+00  0.000E+00  1.04029E+03  2.104E+00  1.200E+01  6.000E-02  1.701E+00
   1   11    7     6     3    6.1768E+01  3.0587E-01   6.1462E+01  0.000E+00  0.000E+00  0.000E+00  1.03573E+03  2.098E+00  1.200E+01  6.000E-02  1.699E+00
   1   12    7     6     4    6.1462E+01  3.0550E-01   6.1157E+01  0.000E+00  0.000E+00  0.000E+00  1.03118E+03  2.092E+00  1.200E+01  6.000E-02  1.697E+00
   1   13    7     6     5    6.1157E+01  2.1412E-02   6.1135E+01  0.000E+00  0.000E+00  0.000E+00  1.02800E+03  2.088E+00  1.200E+01  2.400E-02  2.974E-01
   1   14    9     7     1    1.5000E+02  1.3312E+00   1.4867E+02  0.000E+00  0.000E+00  0.000E+00  1.03987E+03  2.288E+00  5.529E+01  5.593E-01  7.933E-01
   1   13    8     7     2    1.4867E+02  1.8238E+00   1.4685E+02  0.000E+00  0.000E+00  0.000E+00  1.03478E+03  2.279E+00  5.526E+01  6.148E-01  9.889E-01
   1   13    7     7     3    1.4685E+02  1.4435E+00   1.4540E+02  0.000E+00  0.000E+00  0.000E+00  1.02969E+03  2.271E+00  5.522E+01  5.585E-01  8.616E-01
   1   13    6     8     1    2.0654E+02  1.0400E+00   2.0550E+02  0.000E+00  0.000E+00  0.000E+00  1.02505E+03  3.173E+00  4.601E+01  4.688E-01  7.394E-01
   1   13    5     8     2    2.0550E+02  2.3913E-01   2.0526E+02  0.000E+00  0.000E+00  0.000E+00  1.01879E+03  3.169E+00  4.595E+01  4.683E-01  1.702E-01
   1   13    4     8     3    2.0526E+02 -2.2774E+00   2.0754E+02  0.000E+00  0.000E+00  0.000E+00  1.01255E+03  3.175E+00  4.604E+01  4.691E+00 -1.618E-01
   1   13    3     8     4    2.0754E+02 -3.5180E+00   2.1105E+02  0.000E+00  0.000E+00  0.000E+00  1.00632E+03  3.192E+00  4.628E+01  4.716E+00 -2.487E-01
   1   13    2     8     5    2.1105E+02 -2.6386E+00   2.1369E+02  0.000E+00  0.000E+00  0.000E+00  1.00008E+03  3.209E+00  4.653E+01  4.742E+00 -1.855E-01
   1   13    1     8     6    2.1369E+02 -2.0516E+00   2.1574E+02  0.000E+00  0.000E+00  0.000E+00  9.95097E+02  3.222E+00  4.672E+01  2.857E+00 -2.394E-01



 UBDSV3 SAVING "           GW ET" ON UNIT  61 AT TIME STEP  1, STRESS PERIOD  19
 UBDSV3 SAVING "    UZF RECHARGE" ON UNIT  61 AT TIME STEP  1, STRESS PERIOD  19
 UBDSV3 SAVING " SURFACE LEAKAGE" ON UNIT  61 AT TIME STEP  1, STRESS PERIOD  19
 UBDSV3 SAVING "       HORT+DUNN" ON UNIT  61 AT TIME STEP  1, STRESS PERIOD  19
 UBDSV3 SAVING "  STORAGE CHANGE" ON UNIT  61 AT TIME STEP  1, STRESS PERIOD  19


UNSATURATED ZONE PACKAGE VOLUMETRIC BUDGET FOR  TIME STEP     1 STRESS PERIOD   19
  ------------------------------------------------------------------------------



     CUMULATIVE VOLUMES      L**3       RATES FOR THIS TIME STEP      L**3/T
     ------------------                 ------------------------

           IN:                                      IN:
           ---                                      ---
        INFILTRATION =   504481307.7446          INFILTRATION =          23.3175

          OUT:                                     OUT:
          ----                                     ----
              UZF ET =   466480240.9370                UZF ET =          23.3175
        UZF RECHARGE =    37930890.8416          UZF RECHARGE =       0.0000E+00

            IN - OUT =       70175.9660              IN - OUT =       0.0000E+00

          STORAGE:                                 STORAGE:
          --------                                 --------
      STORAGE CHANGE =       70177.9937        STORAGE CHANGE =       8.5026E-15

 PERCENT DISCREPANCY IS DIFFERENCE BETWEEN IN-OUT MINUS CHANGE IN STORAGE
 DIVIDED BY THE AVERAGE OF IN AND OUT TIMES 100

 PERCENT DISCREPANCY =           0.00     PERCENT DISCREPANCY =           0.00






 

            AG WELLS      PERIOD   19   STEP   1
 AG WELL      1   LAYER   1   ROW     6   COL     4   RATE    -3.74500    
 AG WELL      2   LAYER   1   ROW     6   COL     5   RATE    -3.74500    
 AG WELL      3   LAYER   1   ROW     7   COL     4   RATE    -3.74500    
 AG WELL      4   LAYER   1   ROW     7   COL     5   RATE    -3.74500    
 AG WELL      5   LAYER   1   ROW     8   COL     4   RATE    -3.74500    
 AG WELL      6   LAYER   1   ROW     8   COL     5   RATE    -3.74500    
 
 

        GW IRRIGATION     PERIOD   19   STEP   1
 AG WELL      1   ROW     6   COL     4   RATE     3.74500    
 AG WELL      2   ROW     6   COL     5   RATE     3.74500    
 AG WELL      3   ROW     7   COL     4   RATE     3.74500    
 AG WELL      4   ROW     7   COL     5   RATE     3.74500    
 AG WELL      5   ROW     8   COL     4   RATE     3.74500    
 AG WELL      6   ROW     8   COL     5   RATE     3.74500    
 
1
  VOLUMETRIC BUDGET FOR AGRICULTURAL FIELDS AT  END OF TIME STEP    1, STRESS PERIOD  19
  ------------------------------------------------------------------------------

     CUMULATIVE VOLUMES      L**3       RATES FOR THIS TIME STEP      L**3/T
     ------------------                 ------------------------

           IN:                                      IN:
           ---                                      ---
               AG WELLS  =   466441664.0000                 AG WELLS  =          22.4700
      DIVERSION SEGMENTS =           0.0000        DIVERSION SEGMENTS =           0.0000
           GW IRRIGATION =           0.0000             GW IRRIGATION =           0.0000
           SW IRRIGATION =           0.0000             SW IRRIGATION =           0.0000
        SYSTEM LOSSES GW =           0.0000          SYSTEM LOSSES GW =           0.0000
        SYSTEM LOSSES SW =           0.0000          SYSTEM LOSSES SW =           0.0000

                TOTAL IN =   466441664.0000                  TOTAL IN =          22.4700

          OUT:                                     OUT:
          ----                                     ----
               AG WELLS  =           0.0000                 AG WELLS  =           0.0000
      DIVERSION SEGMENTS =           0.0000        DIVERSION SEGMENTS =           0.0000
           GW IRRIGATION =   466441664.0000             GW IRRIGATION =          22.4700
           SW IRRIGATION =           0.0000             SW IRRIGATION =           0.0000
        SYSTEM LOSSES GW =           0.0000          SYSTEM LOSSES GW =           0.0000
        SYSTEM LOSSES SW =           0.0000          SYSTEM LOSSES SW =           0.0000

               TOTAL OUT =   466441664.0000                 TOTAL OUT =          22.4700

                IN - OUT =           0.0000                  IN - OUT =           0.0000

     PERCENT DISCREPANCY =           0.00         PERCENT DISCREPANCY =           0.00



1
  VOLUMETRIC BUDGET FOR ENTIRE MODEL AT END OF TIME STEP    1, STRESS PERIOD  19
  ------------------------------------------------------------------------------

     CUMULATIVE VOLUMES      L**3       RATES FOR THIS TIME STEP      L**3/T
     ------------------                 ------------------------

           IN:                                      IN:
           ---                                      ---
             STORAGE     =   625200320.0000               STORAGE     =          21.3139
       CONSTANT HEAD     =           0.0000         CONSTANT HEAD     =           0.0000
     HEAD DEP BOUNDS     =    12810421.0000       HEAD DEP BOUNDS     =           0.2854
      STREAM LEAKAGE     =   563080192.0000        STREAM LEAKAGE     =          12.9446
        UZF RECHARGE     =    37930912.0000          UZF RECHARGE     =           0.0000
               GW ET     =           0.0000                 GW ET     =           0.0000
     SURFACE LEAKAGE     =           0.0000       SURFACE LEAKAGE     =           0.0000
           AG WELLS      =           0.0000             AG WELLS      =           0.0000

                TOTAL IN =  1239021824.0000                  TOTAL IN =          34.5440

          OUT:                                     OUT:
          ----                                     ----
             STORAGE     =   281241696.0000               STORAGE     =           0.5570
       CONSTANT HEAD     =           0.0000         CONSTANT HEAD     =           0.0000
     HEAD DEP BOUNDS     =    13225365.0000       HEAD DEP BOUNDS     =           0.2970
      STREAM LEAKAGE     =   462648896.0000        STREAM LEAKAGE     =          10.4857
        UZF RECHARGE     =           0.0000          UZF RECHARGE     =           0.0000
               GW ET     =    15462873.0000                 GW ET     =           0.7343
     SURFACE LEAKAGE     =           0.0000       SURFACE LEAKAGE     =           0.0000
           AG WELLS      =   466441664.0000             AG WELLS      =          22.4700

               TOTAL OUT =  1239020544.0000                 TOTAL OUT =          34.5440

                IN - OUT =        1280.0000                  IN - OUT =      -7.2479E-05

     PERCENT DISCREPANCY =           0.00         PERCENT DISCREPANCY =          -0.00






         TIME SUMMARY AT END OF TIME STEP    1 IN STRESS PERIOD   19
                    SECONDS     MINUTES      HOURS       DAYS        YEARS
                    -----------------------------------------------------------
   TIME STEP LENGTH  87667.      1461.1      24.352      1.0147     2.77799E-03
 STRESS PERIOD TIME  87667.      1461.1      24.352      1.0147     2.77799E-03
         TOTAL TIME 4.48841E+07 7.48069E+05  12468.      519.49      1.4223    
1
 
 SOLVING FOR HEAD 
                                                   Max.-Head-Change                         Max.-Flux-Residual
  Residual-Control   Outer-Iter.   Inner-Iter.     Column Row Layer    Maximum-Head-Change  Column Row Layer    Maximum-Flux-Residual          L2-NORM 
          0                 1           2             4    7     1      -0.5763861991E-01       4    7    1        -0.3014557312E+01      0.7080887983E+01
          0                 2           2             4    7     1       0.5606630933E-02       4    7    1         0.3014535326E+00      0.7080105989E+00
          0                 3           2             4    7     1      -0.3817910810E-03       4    7    1        -0.2110177495E-01      0.4955441255E-01
          0                 4           1             4    7     1       0.1519182299E-04       4    7    1         0.8630637174E-03      0.2026383924E-02

    ------------------------------------------------
       NWT REQUIRED            4 OUTER ITERATIONS 
       AND A TOTAL OF          7 INNER ITERATIONS.
    ------------------------------------------------

 NO OUTPUT CONTROL FOR STRESS PERIOD   19   TIME STEP    2
 
 SOLVING FOR HEAD 
                                                   Max.-Head-Change                         Max.-Flux-Residual
  Residual-Control   Outer-Iter.   Inner-Iter.     Column Row Layer    Maximum-Head-Change  Column Row Layer    Maximum-Flux-Residual          L2-NORM 
          0                 1           2             4    7     1      -0.5724152944E-01       4    7    1        -0.2994849472E+01      0.6959450690E+01
          0                 2           2             4    7     1       0.5568002760E-02       4    7    1         0.2994826023E+00      0.6958863869E+00
          0                 3           2             4    7     1      -0.3791606662E-03       4    7    1        -0.2096381116E-01      0.4870746718E-01
          0                 4           1             4    7     1       0.1508715623E-04       4    7    1         0.8574209776E-03      0.1991838158E-02

    ------------------------------------------------
       NWT REQUIRED            4 OUTER ITERATIONS 
       AND A TOTAL OF          7 INNER ITERATIONS.
    ------------------------------------------------

 NO OUTPUT CONTROL FOR STRESS PERIOD   19   TIME STEP    3
 
 SOLVING FOR HEAD 
                                                   Max.-Head-Change                         Max.-Flux-Residual
  Residual-Control   Outer-Iter.   Inner-Iter.     Column Row Layer    Maximum-Head-Change  Column Row Layer    Maximum-Flux-Residual          L2-NORM 
          0                 1           2             4    7     1      -0.5682825436E-01       4    7    1        -0.2974208406E+01      0.6844974270E+01
          0                 2           2             4    7     1       0.5527800524E-02       4    7    1         0.2974183669E+00      0.6844526131E+00
          0                 3           2             4    7     1      -0.3764230610E-03       4    7    1        -0.2081931583E-01      0.4790833748E-01
          0                 4           1             4    7     1       0.1497822457E-04       4    7    1         0.8515111160E-03      0.1959238074E-02

    ------------------------------------------------
       NWT REQUIRED            4 OUTER ITERATIONS 
       AND A TOTAL OF          7 INNER ITERATIONS.
    ------------------------------------------------

 NO OUTPUT CONTROL FOR STRESS PERIOD   19   TIME STEP    4
 
 SOLVING FOR HEAD 
                                                   Max.-Head-Change                         Max.-Flux-Residual
  Residual-Control   Outer-Iter.   Inner-Iter.     Column Row Layer    Maximum-Head-Change  Column Row Layer    Maximum-Flux-Residual          L2-NORM 
          0                 1           2             4    7     1      -0.5640076669E-01       4    7    1        -0.2952742907E+01      0.6736556114E+01
          0                 2           2             4    7     1       0.5486216029E-02       4    7    1         0.2952717044E+00      0.6736207737E+00
          0                 3           2             4    7     1      -0.3735913263E-03       4    7    1        -0.2066905045E-01      0.4715101239E-01
          0                 4           1             4    7     1       0.1486554700E-04       4    7    1         0.8453652304E-03      0.1928346969E-02

    ------------------------------------------------
       NWT REQUIRED            4 OUTER ITERATIONS 
       AND A TOTAL OF          7 INNER ITERATIONS.
    ------------------------------------------------

 NO OUTPUT CONTROL FOR STRESS PERIOD   19   TIME STEP    5
 
 SOLVING FOR HEAD 
                                                   Max.-Head-Change                         Max.-Flux-Residual
  Residual-Control   Outer-Iter.   Inner-Iter.     Column Row Layer    Maximum-Head-Change  Column Row Layer    Maximum-Flux-Residual          L2-NORM 
          0                 1           2             4    7     1      -0.5596038654E-01       4    7    1        -0.2930525775E+01      0.6633508145E+01
          0                 2           2             4    7     1       0.5443377666E-02       4    7    1         0.2930498936E+00      0.6633232283E+00
          0                 3           2             4    7     1      -0.3706742064E-03       4    7    1        -0.2051352456E-01      0.4643078952E-01
          0                 4           1             4    7     1       0.1474947190E-04       4    7    1         0.8390042171E-03      0.1898915829E-02

    ------------------------------------------------
       NWT REQUIRED            4 OUTER ITERATIONS 
       AND A TOTAL OF          7 INNER ITERATIONS.
    ------------------------------------------------

 NO OUTPUT CONTROL FOR STRESS PERIOD   19   TIME STEP    6
 
 SOLVING FOR HEAD 
                                                   Max.-Head-Change                         Max.-Flux-Residual
  Residual-Control   Outer-Iter.   Inner-Iter.     Column Row Layer    Maximum-Head-Change  Column Row Layer    Maximum-Flux-Residual          L2-NORM 
          0                 1           2             4    7     1      -0.5550861673E-01       4    7    1        -0.2907640182E+01      0.6535276403E+01
          0                 2           2             4    7     1       0.5399431603E-02       4    7    1         0.2907612506E+00      0.6535053156E+00
          0                 3           2             4    7     1      -0.3676816538E-03       4    7    1        -0.2035332027E-01      0.4574396843E-01
          0                 4           1             4    7     1       0.1463039508E-04       4    7    1         0.8324518456E-03      0.1870850654E-02

    ------------------------------------------------
       NWT REQUIRED            4 OUTER ITERATIONS 
       AND A TOTAL OF          7 INNER ITERATIONS.
    ------------------------------------------------

 NO OUTPUT CONTROL FOR STRESS PERIOD   19   TIME STEP    7
 
 SOLVING FOR HEAD 
                                                   Max.-Head-Change                         Max.-Flux-Residual
  Residual-Control   Outer-Iter.   Inner-Iter.     Column Row Layer    Maximum-Head-Change  Column Row Layer    Maximum-Flux-Residual          L2-NORM 
          0                 1           2             4    7     1      -0.5504699686E-01       4    7    1        -0.2884171411E+01      0.6441410495E+01
          0                 2           2             4    7     1       0.5354527582E-02       4    7    1         0.2884143023E+00      0.6441227202E+00
          0                 3           2             4    7     1      -0.3646238662E-03       4    7    1        -0.2018903449E-01      0.4508757127E-01
          0                 4           1             4    7     1       0.1450872305E-04       4    7    1         0.8257325451E-03      0.1844015749E-02

    ------------------------------------------------
       NWT REQUIRED            4 OUTER ITERATIONS 
       AND A TOTAL OF          7 INNER ITERATIONS.
    ------------------------------------------------

 NO OUTPUT CONTROL FOR STRESS PERIOD   19   TIME STEP    8
 
 SOLVING FOR HEAD 
                                                   Max.-Head-Change                         Max.-Flux-Residual
  Residual-Control   Outer-Iter.   Inner-Iter.     Column Row Layer    Maximum-Head-Change  Column Row Layer    Maximum-Flux-Residual          L2-NORM 
          0                 1           2             4    7     1      -0.5457670013E-01       4    7    1        -0.2860184569E+01      0.6351550503E+01
          0                 2           2             4    7     1       0.5308779709E-02       4    7    1         0.2860155586E+00      0.6351396265E+00
          0                 3           2             4    7     1      -0.3615086136E-03       4    7    1        -0.2002112291E-01      0.4445898579E-01
          0                 4           1             4    7     1       0.1438476435E-04       4    7    1         0.8188649558E-03      0.1818309579E-02

    ------------------------------------------------
       NWT REQUIRED            4 OUTER ITERATIONS 
       AND A TOTAL OF          7 INNER ITERATIONS.
    ------------------------------------------------

 NO OUTPUT CONTROL FOR STRESS PERIOD   19   TIME STEP    9
 
 SOLVING FOR HEAD 
                                                   Max.-Head-Change                         Max.-Flux-Residual
  Residual-Control   Outer-Iter.   Inner-Iter.     Column Row Layer    Maximum-Head-Change  Column Row Layer    Maximum-Flux-Residual          L2-NORM 
          0                 1           2             4    7     1      -0.5409896048E-01       4    7    1        -0.2835747846E+01      0.6265382697E+01
          0                 2           2             4    7     1       0.5262308000E-02       4    7    1         0.2835718375E+00      0.6265250937E+00
          0                 3           2             4    7     1      -0.3583440689E-03       4    7    1        -0.1985006283E-01      0.4385613437E-01
          0                 4           1             4    7     1       0.1425884366E-04       4    7    1         0.8118685671E-03      0.1793659101E-02

    ------------------------------------------------
       NWT REQUIRED            4 OUTER ITERATIONS 
       AND A TOTAL OF          7 INNER ITERATIONS.
    ------------------------------------------------

 NO OUTPUT CONTROL FOR STRESS PERIOD   19   TIME STEP   10
 
 SOLVING FOR HEAD 
                                                   Max.-Head-Change                         Max.-Flux-Residual
  Residual-Control   Outer-Iter.   Inner-Iter.     Column Row Layer    Maximum-Head-Change  Column Row Layer    Maximum-Flux-Residual          L2-NORM 
          0                 1           2             4    7     1      -0.5361491898E-01       4    7    1        -0.2810925222E+01      0.6182637109E+01
          0                 2           2             4    7     1       0.5215223433E-02       4    7    1         0.2810895361E+00      0.6182522405E+00
          0                 3           2             4    7     1      -0.3551377900E-03       4    7    1        -0.1967630202E-01      0.4327719232E-01
          0                 4           1             4    7     1       0.1413126340E-04       4    7    1         0.8047617564E-03      0.1770000832E-02

    ------------------------------------------------
       NWT REQUIRED            4 OUTER ITERATIONS 
       AND A TOTAL OF          7 INNER ITERATIONS.
    ------------------------------------------------

 NO OUTPUT CONTROL FOR STRESS PERIOD   19   TIME STEP   11
 
 SOLVING FOR HEAD 
                                                   Max.-Head-Change                         Max.-Flux-Residual
  Residual-Control   Outer-Iter.   Inner-Iter.     Column Row Layer    Maximum-Head-Change  Column Row Layer    Maximum-Flux-Residual          L2-NORM 
          0                 1           2             4    7     1      -0.5312551118E-01       4    7    1        -0.2785768507E+01      0.6103079383E+01
          0                 2           2             4    7     1       0.5167617003E-02       4    7    1         0.2785738345E+00      0.6102977747E+00
          0                 3           2             4    7     1      -0.3518959723E-03       4    7    1        -0.1950020312E-01      0.4272044198E-01
          0                 4           1             4    7     1       0.1400226821E-04       4    7    1         0.7975592932E-03      0.1747237609E-02

    ------------------------------------------------
       NWT REQUIRED            4 OUTER ITERATIONS 
       AND A TOTAL OF          7 INNER ITERATIONS.
    ------------------------------------------------

 NO OUTPUT CONTROL FOR STRESS PERIOD   19   TIME STEP   12
 
 SOLVING FOR HEAD 
                                                   Max.-Head-Change                         Max.-Flux-Residual
  Residual-Control   Outer-Iter.   Inner-Iter.     Column Row Layer    Maximum-Head-Change  Column Row Layer    Maximum-Flux-Residual          L2-NORM 
          0                 1           2             4    7     1      -0.5263200360E-01       4    7    1        -0.2760348275E+01      0.6026498932E+01
          0                 2           2             4    7     1       0.5119611892E-02       4    7    1         0.2760317893E+00      0.6026407878E+00
          0                 3           2             4    7     1      -0.3486270052E-03       4    7    1        -0.1932226009E-01      0.4218457185E-01
          0                 4           1             4    7     1       0.1387219314E-04       4    7    1         0.7902814277E-03      0.1725326252E-02

    ------------------------------------------------
       NWT REQUIRED            4 OUTER ITERATIONS 
       AND A TOTAL OF          7 INNER ITERATIONS.
    ------------------------------------------------

 NO OUTPUT CONTROL FOR STRESS PERIOD   19   TIME STEP   13
 
 SOLVING FOR HEAD 
                                                   Max.-Head-Change                         Max.-Flux-Residual
  Residual-Control   Outer-Iter.   Inner-Iter.     Column Row Layer    Maximum-Head-Change  Column Row Layer    Maximum-Flux-Residual          L2-NORM 
          0                 1           2             4    7     1      -0.5213504175E-01       4    7    1        -0.2734700773E+01      0.5952709484E+01
          0                 2           2             4    7     1       0.5071273526E-02       4    7    1         0.2734670245E+00      0.5954000583E+00
          0                 3           2             4    7     1      -0.3453353376E-03       4    7    1        -0.1914272663E-01      0.4167776808E-01
          0                 4           1             4    7     1       0.1374121465E-04       4    7    1         0.7829384829E-03      0.1704606480E-02

    ------------------------------------------------
       NWT REQUIRED            4 OUTER ITERATIONS 
       AND A TOTAL OF          7 INNER ITERATIONS.
    ------------------------------------------------

 NO OUTPUT CONTROL FOR STRESS PERIOD   19   TIME STEP   14
 
 SOLVING FOR HEAD 
                                                   Max.-Head-Change                         Max.-Flux-Residual
  Residual-Control   Outer-Iter.   Inner-Iter.     Column Row Layer    Maximum-Head-Change  Column Row Layer    Maximum-Flux-Residual          L2-NORM 
          0                 1           2             4    7     1      -0.5163546760E-01       4    7    1        -0.2708874042E+01      0.5881465309E+01
          0                 2           2             4    7     1       0.5022676415E-02       4    7    1         0.2708843435E+00      0.5881403544E+00
          0                 3           2             4    7     1      -0.3420260555E-03       4    7    1        -0.1896193894E-01      0.4116965136E-01
          0                 4           1             4    7     1       0.1360953516E-04       4    7    1         0.7755442650E-03      0.1683831440E-02

    ------------------------------------------------
       NWT REQUIRED            4 OUTER ITERATIONS 
       AND A TOTAL OF          7 INNER ITERATIONS.
    ------------------------------------------------

 NO OUTPUT CONTROL FOR STRESS PERIOD   19   TIME STEP   15
 
 SOLVING FOR HEAD 
                                                   Max.-Head-Change                         Max.-Flux-Residual
  Residual-Control   Outer-Iter.   Inner-Iter.     Column Row Layer    Maximum-Head-Change  Column Row Layer    Maximum-Flux-Residual          L2-NORM 
          0                 1           2             4    7     1      -0.5113420368E-01       4    7    1        -0.2682919485E+01      0.5812328834E+01
          0                 2           2             4    7     1       0.4973917086E-02       4    7    1         0.2682888859E+00      0.5812271786E+00
          0                 3           2             4    7     1      -0.3387057262E-03       4    7    1        -0.1878025685E-01      0.4068575966E-01
          0                 4           1             4    7     1       0.1347741611E-04       4    7    1         0.7681134580E-03      0.1664038960E-02

    ------------------------------------------------
       NWT REQUIRED            4 OUTER ITERATIONS 
       AND A TOTAL OF          7 INNER ITERATIONS.
    ------------------------------------------------

 NO OUTPUT CONTROL FOR STRESS PERIOD   19   TIME STEP   16
 
 SOLVING FOR HEAD 
                                                   Max.-Head-Change                         Max.-Flux-Residual
  Residual-Control   Outer-Iter.   Inner-Iter.     Column Row Layer    Maximum-Head-Change  Column Row Layer    Maximum-Flux-Residual          L2-NORM 
          0                 1           2             4    7     1      -0.5063196973E-01       4    7    1        -0.2656877217E+01      0.5745571393E+01
          0                 2           2             4    7     1       0.4925063478E-02       4    7    1         0.2656846625E+00      0.5745516413E+00
          0                 3           2             4    7     1      -0.3353789757E-03       4    7    1        -0.1859796109E-01      0.4021848259E-01
          0                 4           1             4    7     1       0.1334504147E-04       4    7    1         0.7606575412E-03      0.1644923659E-02

    ------------------------------------------------
       NWT REQUIRED            4 OUTER ITERATIONS 
       AND A TOTAL OF          7 INNER ITERATIONS.
    ------------------------------------------------

 NO OUTPUT CONTROL FOR STRESS PERIOD   19   TIME STEP   17
 
 SOLVING FOR HEAD 
                                                   Max.-Head-Change                         Max.-Flux-Residual
  Residual-Control   Outer-Iter.   Inner-Iter.     Column Row Layer    Maximum-Head-Change  Column Row Layer    Maximum-Flux-Residual          L2-NORM 
          0                 1           2             4    7     1      -0.5012929655E-01       4    7    1        -0.2630777316E+01      0.5681050408E+01
          0                 2           2             4    7     1       0.4876167220E-02       4    7    1         0.2630746807E+00      0.5681000202E+00
          0                 3           2             4    7     1      -0.3320493208E-03       4    7    1        -0.1841526222E-01      0.3976690985E-01
          0                 4           1             4    7     1       0.1321255136E-04       4    7    1         0.7531851456E-03      0.1626465405E-02

    ------------------------------------------------
       NWT REQUIRED            4 OUTER ITERATIONS 
       AND A TOTAL OF          7 INNER ITERATIONS.
    ------------------------------------------------

 NO OUTPUT CONTROL FOR STRESS PERIOD   19   TIME STEP   18
 
 SOLVING FOR HEAD 
                                                   Max.-Head-Change                         Max.-Flux-Residual
  Residual-Control   Outer-Iter.   Inner-Iter.     Column Row Layer    Maximum-Head-Change  Column Row Layer    Maximum-Flux-Residual          L2-NORM 
          0                 1           2             4    7     1      -0.4962694226E-01       4    7    1        -0.2604662006E+01      0.5618655916E+01
          0                 2           2             4    7     1       0.4827302044E-02       4    7    1         0.2604631625E+00      0.5618608433E+00
          0                 3           2             4    7     1      -0.3287217814E-03       4    7    1        -0.1823245574E-01      0.3933018509E-01
          0                 4           1             4    7     1       0.1308014576E-04       4    7    1         0.7457083623E-03      0.1608600419E-02

    ------------------------------------------------
       NWT REQUIRED            4 OUTER ITERATIONS 
       AND A TOTAL OF          7 INNER ITERATIONS.
    ------------------------------------------------

 NO OUTPUT CONTROL FOR STRESS PERIOD   19   TIME STEP   19
 
 SOLVING FOR HEAD 
                                                   Max.-Head-Change                         Max.-Flux-Residual
  Residual-Control   Outer-Iter.   Inner-Iter.     Column Row Layer    Maximum-Head-Change  Column Row Layer    Maximum-Flux-Residual          L2-NORM 
          0                 1           2             4    7     1      -0.4912533788E-01       4    7    1        -0.2578555893E+01      0.5558265618E+01
          0                 2           2             4    7     1       0.4778509873E-02       4    7    1         0.2578525680E+00      0.5558220467E+00
          0                 3           2             4    7     1      -0.3253992128E-03       4    7    1        -0.1804971388E-01      0.3890748199E-01
          0                 4           1             4    7     1       0.1294793736E-04       4    7    1         0.7382342019E-03      0.1591314165E-02

    ------------------------------------------------
       NWT REQUIRED            4 OUTER ITERATIONS 
       AND A TOTAL OF          7 INNER ITERATIONS.
    ------------------------------------------------

 NO OUTPUT CONTROL FOR STRESS PERIOD   19   TIME STEP   20
 
 SOLVING FOR HEAD 
                                                   Max.-Head-Change                         Max.-Flux-Residual
  Residual-Control   Outer-Iter.   Inner-Iter.     Column Row Layer    Maximum-Head-Change  Column Row Layer    Maximum-Flux-Residual          L2-NORM 
          0                 1           2             4    7     1      -0.4862500515E-01       4    7    1        -0.2552488679E+01      0.5499774668E+01
          0                 2           2             4    7     1       0.4729841451E-02       4    7    1         0.2552458669E+00      0.5499731554E+00
          0                 3           2             4    7     1      -0.3220850710E-03       4    7    1        -0.1786724455E-01      0.3849807731E-01
          0                 4           1             4    7     1       0.1281606434E-04       4    7    1         0.7307711908E-03      0.1574567991E-02

    ------------------------------------------------
       NWT REQUIRED            4 OUTER ITERATIONS 
       AND A TOTAL OF          7 INNER ITERATIONS.
    ------------------------------------------------

 NO OUTPUT CONTROL FOR STRESS PERIOD   19   TIME STEP   21
 
 SOLVING FOR HEAD 
                                                   Max.-Head-Change                         Max.-Flux-Residual
  Residual-Control   Outer-Iter.   Inner-Iter.     Column Row Layer    Maximum-Head-Change  Column Row Layer    Maximum-Flux-Residual          L2-NORM 
          0                 1           2             4    7     1      -0.4812670139E-01       4    7    1        -0.2526502110E+01      0.5443102253E+01
          0                 2           2             4    7     1       0.4681370437E-02       4    7    1         0.2526472334E+00      0.5443060828E+00
          0                 3           2             4    7     1      -0.3187843710E-03       4    7    1        -0.1768533990E-01      0.3810139245E-01
          0                 4           1             4    7     1       0.1268472677E-04       4    7    1         0.7233312820E-03      0.1558350693E-02

    ------------------------------------------------
       NWT REQUIRED            4 OUTER ITERATIONS 
       AND A TOTAL OF          7 INNER ITERATIONS.
    ------------------------------------------------

 NO OUTPUT CONTROL FOR STRESS PERIOD   19   TIME STEP   22
 
 SOLVING FOR HEAD 
                                                   Max.-Head-Change                         Max.-Flux-Residual
  Residual-Control   Outer-Iter.   Inner-Iter.     Column Row Layer    Maximum-Head-Change  Column Row Layer    Maximum-Flux-Residual          L2-NORM 
          0                 1           2             4    7     1      -0.4763058157E-01       4    7    1        -0.2500606058E+01      0.5388137816E+01
          0                 2           2             4    7     1       0.4633111902E-02       4    7    1         0.2500576545E+00      0.5388097953E+00
          0                 3           2             4    7     1      -0.3154981399E-03       4    7    1        -0.1750406905E-01      0.3771665847E-01
          0                 4           1             4    7     1       0.1255396450E-04       4    7    1         0.7159172997E-03      0.1542609149E-02

    ------------------------------------------------
       NWT REQUIRED            4 OUTER ITERATIONS 
       AND A TOTAL OF          7 INNER ITERATIONS.
    ------------------------------------------------

 NO OUTPUT CONTROL FOR STRESS PERIOD   19   TIME STEP   23
 
 SOLVING FOR HEAD 
                                                   Max.-Head-Change                         Max.-Flux-Residual
  Residual-Control   Outer-Iter.   Inner-Iter.     Column Row Layer    Maximum-Head-Change  Column Row Layer    Maximum-Flux-Residual          L2-NORM 
          0                 1           2             4    7     1      -0.4713705216E-01       4    7    1        -0.2474823259E+01      0.5334821584E+01
          0                 2           2             4    7     1       0.4585105380E-02       4    7    1         0.2474794032E+00      0.5334783045E+00
          0                 3           2             4    7     1      -0.3122290695E-03       4    7    1        -0.1732359112E-01      0.3734346482E-01
          0                 4           1             4    7     1       0.1242388505E-04       4    7    1         0.7085357367E-03      0.1527346955E-02

    ------------------------------------------------
       NWT REQUIRED            4 OUTER ITERATIONS 
       AND A TOTAL OF          7 INNER ITERATIONS.
    ------------------------------------------------

 NO OUTPUT CONTROL FOR STRESS PERIOD   19   TIME STEP   24
 
 SOLVING FOR HEAD 
                                                   Max.-Head-Change                         Max.-Flux-Residual
  Residual-Control   Outer-Iter.   Inner-Iter.     Column Row Layer    Maximum-Head-Change  Column Row Layer    Maximum-Flux-Residual          L2-NORM 
          0                 1           2             4    7     1      -0.4664661413E-01       4    7    1        -0.2449182131E+01      0.5283058646E+01
          0                 2           2             4    7     1       0.4537399597E-02       4    7    1         0.2449153213E+00      0.5283021414E+00
          0                 3           2             4    7     1      -0.3089804779E-03       4    7    1        -0.1714410500E-01      0.3698113352E-01
          0                 4           1             4    7     1       0.1229462081E-04       4    7    1         0.7011947594E-03      0.1512524590E-02

    ------------------------------------------------
       NWT REQUIRED            4 OUTER ITERATIONS 
       AND A TOTAL OF          7 INNER ITERATIONS.
    ------------------------------------------------

 NO OUTPUT CONTROL FOR STRESS PERIOD   19   TIME STEP   25
 
 SOLVING FOR HEAD 
                                                   Max.-Head-Change                         Max.-Flux-Residual
  Residual-Control   Outer-Iter.   Inner-Iter.     Column Row Layer    Maximum-Head-Change  Column Row Layer    Maximum-Flux-Residual          L2-NORM 
          0                 1           2             4    7     1      -0.4615959275E-01       4    7    1        -0.2423701304E+01      0.5232790421E+01
          0                 2           2             4    7     1       0.4490026187E-02       4    7    1         0.2423672713E+00      0.5232754371E+00
          0                 3           2             4    7     1      -0.3057545194E-03       4    7    1        -0.1696574112E-01      0.3662927873E-01
          0                 4           1             4    7     1       0.1216625665E-04       4    7    1         0.6938996551E-03      0.1498137219E-02

    ------------------------------------------------
       NWT REQUIRED            4 OUTER ITERATIONS 
       AND A TOTAL OF          7 INNER ITERATIONS.
    ------------------------------------------------

 NO OUTPUT CONTROL FOR STRESS PERIOD   19   TIME STEP   26
 
 SOLVING FOR HEAD 
                                                   Max.-Head-Change                         Max.-Flux-Residual
  Residual-Control   Outer-Iter.   Inner-Iter.     Column Row Layer    Maximum-Head-Change  Column Row Layer    Maximum-Flux-Residual          L2-NORM 
          0                 1           2             4    7     1      -0.4567615040E-01       4    7    1        -0.2398390298E+01      0.5183938999E+01
          0                 2           2             4    7     1       0.4443000943E-02       4    7    1         0.2398362050E+00      0.5183903986E+00
          0                 3           2             4    7     1      -0.3025522700E-03       4    7    1        -0.1678856607E-01      0.3628732369E-01
          0                 4           1             4    7     1       0.1203883676E-04       4    7    1         0.6866532144E-03      0.1484152774E-02

    ------------------------------------------------
       NWT REQUIRED            4 OUTER ITERATIONS 
       AND A TOTAL OF          7 INNER ITERATIONS.
    ------------------------------------------------

 NO OUTPUT CONTROL FOR STRESS PERIOD   19   TIME STEP   27
 
 SOLVING FOR HEAD 
                                                   Max.-Head-Change                         Max.-Flux-Residual
  Residual-Control   Outer-Iter.   Inner-Iter.     Column Row Layer    Maximum-Head-Change  Column Row Layer    Maximum-Flux-Residual          L2-NORM 
          0                 1           2             4    7     1      -0.4519683129E-01       4    7    1        -0.2373279564E+01      0.5136458426E+01
          0                 2           2             4    7     1       0.4396376798E-02       4    7    1         0.2373251673E+00      0.5136424375E+00
          0                 3           2             4    7     1      -0.2993773334E-03       4    7    1        -0.1661279303E-01      0.3595496811E-01
          0                 4           1             4    7     1       0.1191250275E-04       4    7    1         0.6794640815E-03      0.1470554935E-02

    ------------------------------------------------
       NWT REQUIRED            4 OUTER ITERATIONS 
       AND A TOTAL OF          7 INNER ITERATIONS.
    ------------------------------------------------

 NO OUTPUT CONTROL FOR STRESS PERIOD   19   TIME STEP   28
 
 SOLVING FOR HEAD 
                                                   Max.-Head-Change                         Max.-Flux-Residual
  Residual-Control   Outer-Iter.   Inner-Iter.     Column Row Layer    Maximum-Head-Change  Column Row Layer    Maximum-Flux-Residual          L2-NORM 
          0                 1           2             4    7     1      -0.4472160266E-01       4    7    1        -0.2348367944E+01      0.5091925983E+01
          0                 2           2             4    7     1       0.4350150563E-02       4    7    1         0.2348340422E+00      0.5091851047E+00
          0                 3           2             4    7     1      -0.2962294925E-03       4    7    1        -0.1643841385E-01      0.3564262076E-01
          0                 4           1             4    7     1       0.1178724715E-04       4    7    1         0.6723319455E-03      0.1457804674E-02

    ------------------------------------------------
       NWT REQUIRED            4 OUTER ITERATIONS 
       AND A TOTAL OF          7 INNER ITERATIONS.
    ------------------------------------------------

 NO OUTPUT CONTROL FOR STRESS PERIOD   19   TIME STEP   29
 
 SOLVING FOR HEAD 
                                                   Max.-Head-Change                         Max.-Flux-Residual
  Residual-Control   Outer-Iter.   Inner-Iter.     Column Row Layer    Maximum-Head-Change  Column Row Layer    Maximum-Flux-Residual          L2-NORM 
          0                 1           2             4    7     1      -0.4425083279E-01       4    7    1        -0.2323675770E+01      0.5050209965E+01
          0                 2           2             4    7     1       0.4304358057E-02       4    7    1         0.2323648628E+00      0.5050035981E+00
          0                 3           2             4    7     1      -0.2931111870E-03       4    7    1        -0.1626557084E-01      0.3534899581E-01
          0                 4           1             4    7     1       0.1166316711E-04       4    7    1         0.6652626776E-03      0.1445702404E-02

    ------------------------------------------------
       NWT REQUIRED            4 OUTER ITERATIONS 
       AND A TOTAL OF          7 INNER ITERATIONS.
    ------------------------------------------------

 NO OUTPUT CONTROL FOR STRESS PERIOD   19   TIME STEP   30



 STREAM LISTING     PERIOD     19   STEP       30

 LAYER ROW COL. STREAM  RCH.  FLOW INTO     FLOW TO   FLOW OUT OF   OVRLND.     DIRECT     STREAM       STREAM     STREAM     STREAM   STREAMBED  STREAMBED
                SEG.NO.  NO.  STRM. RCH.    AQUIFER    STRM. RCH.    RUNOFF     PRECIP       ET          HEAD       DEPTH      WIDTH   CONDCTNC.   GRADIENT

   1    1    1     1     1    5.4001E+01  3.5066E-01   5.3650E+01  0.000E+00  0.000E+00  0.000E+00  1.09450E+03  1.450E+00  1.751E+01  7.879E-02  1.483E+00
   1    2    2     1     2    5.3650E+01  5.4294E-01   5.3107E+01  0.000E+00  0.000E+00  0.000E+00  1.08950E+03  1.445E+00  1.745E+01  1.222E-01  1.482E+00
   1    3    3     1     3    5.3107E+01  4.6294E-01   5.2644E+01  0.000E+00  0.000E+00  0.000E+00  1.08386E+03  1.438E+00  1.739E+01  1.043E-01  1.479E+00
   1    3    4     1     4    5.2644E+01  4.2621E-01   5.2218E+01  0.000E+00  0.000E+00  0.000E+00  1.07884E+03  1.432E+00  1.733E+01  9.616E-02  1.477E+00
   1    4    5     2     1    5.0218E+01  3.7682E-01   4.9841E+01  0.000E+00  0.000E+00  0.000E+00  1.07376E+03  1.831E+00  1.200E+01  7.800E-02  1.610E+00
   1    5    6     2     2    4.9841E+01  2.8942E-01   4.9552E+01  0.000E+00  0.000E+00  0.000E+00  1.06833E+03  1.824E+00  1.200E+01  6.000E-02  1.608E+00
   1    6    6     2     3    4.9552E+01  2.8904E-01   4.9263E+01  0.000E+00  0.000E+00  0.000E+00  1.06361E+03  1.817E+00  1.200E+01  6.000E-02  1.606E+00
   1    7    6     2     4    4.9263E+01  2.8865E-01   4.8974E+01  0.000E+00  0.000E+00  0.000E+00  1.05889E+03  1.811E+00  1.200E+01  6.000E-02  1.604E+00
   1    8    6     2     5    4.8974E+01  2.8827E-01   4.8686E+01  0.000E+00  0.000E+00  0.000E+00  1.05416E+03  1.804E+00  1.200E+01  6.000E-02  1.601E+00
   1    3    5     3     1    2.0000E+00  2.8252E-01   1.7175E+00  0.000E+00  0.000E+00  0.000E+00  1.07555E+03  1.909E+00  9.636E+00  7.227E-02  1.955E+00
   1    3    6     3     2    1.7175E+00  2.4905E-01   1.4684E+00  0.000E+00  0.000E+00  0.000E+00  1.07264E+03  1.727E+00  8.909E+00  6.682E-02  1.864E+00
   1    3    7     3     3    1.4684E+00  1.9718E-01   1.2712E+00  0.000E+00  0.000E+00  0.000E+00  1.06987E+03  1.555E+00  8.218E+00  5.547E-02  1.777E+00
   1    4    8     3     4    1.2712E+00  2.2567E-01   1.0456E+00  0.000E+00  0.000E+00  0.000E+00  1.06682E+03  1.364E+00  7.455E+00  6.709E-02  1.682E+00
   1    5    8     3     5    1.0456E+00  1.5790E-01   8.8768E-01  0.000E+00  0.000E+00  0.000E+00  1.06362E+03  1.164E+00  6.655E+00  4.991E-02  1.582E+00
   1    6    8     3     6    8.8768E-01  5.5980E-02   8.3170E-01  0.000E+00  0.000E+00  0.000E+00  1.06158E+03  1.036E+00  6.145E+00  1.844E-02  1.518E+00
   1    5   10     4     1    1.0000E+01  9.0919E-02   9.9091E+00  0.000E+00  0.000E+00  0.000E+00  1.07836E+03  6.368E-01  1.000E+01  2.500E-02  1.212E+00
   1    5    9     4     2    9.9091E+00  1.8158E-01   9.7275E+00  0.000E+00  0.000E+00  0.000E+00  1.07154E+03  6.315E-01  1.000E+01  5.000E-02  1.211E+00
   1    6    8     4     3    9.7275E+00  1.2689E-01   9.6006E+00  0.000E+00  0.000E+00  0.000E+00  1.06381E+03  6.256E-01  1.000E+01  3.500E-02  1.209E+00
   1    6    8     5     1    1.0432E+01  2.2686E-01   1.0205E+01  0.000E+00  0.000E+00  0.000E+00  1.05868E+03  6.790E-01  1.542E+01  6.166E-02  1.226E+00
   1    7    7     5     2    1.0205E+01  2.7894E-01   9.9265E+00  0.000E+00  0.000E+00  0.000E+00  1.05417E+03  6.732E-01  1.519E+01  7.594E-02  1.224E+00
   1    8    7     5     3    9.9265E+00  1.9221E-01   9.7343E+00  0.000E+00  0.000E+00  0.000E+00  1.04992E+03  6.676E-01  1.497E+01  5.241E-02  1.223E+00
   1    8    6     5     4    9.7343E+00  1.3577E-01   9.5985E+00  0.000E+00  0.000E+00  0.000E+00  1.04691E+03  6.637E-01  1.482E+01  3.706E-02  1.221E+00
   1    9    6     6     1    5.8284E+01  3.0156E-01   5.7983E+01  0.000E+00  0.000E+00  0.000E+00  1.04475E+03  2.026E+00  1.200E+01  6.000E-02  1.675E+00
   1   10    7     6     2    5.7983E+01  3.0118E-01   5.7682E+01  0.000E+00  0.000E+00  0.000E+00  1.04020E+03  2.020E+00  1.200E+01  6.000E-02  1.673E+00
   1   11    7     6     3    5.7682E+01  3.0080E-01   5.7381E+01  0.000E+00  0.000E+00  0.000E+00  1.03565E+03  2.013E+00  1.200E+01  6.000E-02  1.671E+00
   1   12    7     6     4    5.7381E+01  3.0042E-01   5.7080E+01  0.000E+00  0.000E+00  0.000E+00  1.03110E+03  2.007E+00  1.200E+01  6.000E-02  1.669E+00
   1   13    7     6     5    5.7080E+01  1.9638E-02   5.7061E+01  0.000E+00  0.000E+00  0.000E+00  1.02791E+03  2.004E+00  1.200E+01  2.400E-02  2.727E-01
   1   14    9     7     1    1.5000E+02  1.3319E+00   1.4867E+02  0.000E+00  0.000E+00  0.000E+00  1.03987E+03  2.288E+00  5.529E+01  5.593E-01  7.938E-01
   1   13    8     7     2    1.4867E+02  1.8269E+00   1.4684E+02  0.000E+00  0.000E+00  0.000E+00  1.03478E+03  2.279E+00  5.526E+01  6.148E-01  9.905E-01
   1   13    7     7     3    1.4684E+02  1.4494E+00   1.4539E+02  0.000E+00  0.000E+00  0.000E+00  1.02969E+03  2.271E+00  5.522E+01  5.585E-01  8.651E-01
   1   13    6     8     1    2.0245E+02  1.0302E+00   2.0142E+02  0.000E+00  0.000E+00  0.000E+00  1.02502E+03  3.149E+00  4.566E+01  4.653E-01  7.380E-01
   1   13    5     8     2    2.0142E+02  2.3531E-01   2.0119E+02  0.000E+00  0.000E+00  0.000E+00  1.01877E+03  3.145E+00  4.561E+01  4.648E-01  1.688E-01
   1   13    4     8     3    2.0119E+02 -2.2664E+00   2.0345E+02  0.000E+00  0.000E+00  0.000E+00  1.01253E+03  3.151E+00  4.569E+01  4.656E+00 -1.622E-01
   1   13    3     8     4    2.0345E+02 -3.4612E+00   2.0691E+02  0.000E+00  0.000E+00  0.000E+00  1.00629E+03  3.168E+00  4.594E+01  4.681E+00 -2.465E-01
   1   13    2     8     5    2.0691E+02 -2.6099E+00   2.0952E+02  0.000E+00  0.000E+00  0.000E+00  1.00006E+03  3.185E+00  4.619E+01  4.707E+00 -1.848E-01
   1   13    1     8     6    2.0952E+02 -2.0315E+00   2.1156E+02  0.000E+00  0.000E+00  0.000E+00  9.95074E+02  3.199E+00  4.638E+01  2.836E+00 -2.388E-01





UNSATURATED ZONE PACKAGE VOLUMETRIC BUDGET FOR  TIME STEP    30 STRESS PERIOD   19
  ------------------------------------------------------------------------------



     CUMULATIVE VOLUMES      L**3       RATES FOR THIS TIME STEP      L**3/T
     ------------------                 ------------------------

           IN:                                      IN:
           ---                                      ---
        INFILTRATION =   563762170.5626          INFILTRATION =          23.3175

          OUT:                                     OUT:
          ----                                     ----
              UZF ET =   525761103.7551                UZF ET =          23.3175
        UZF RECHARGE =    37930890.8416          UZF RECHARGE =       0.0000E+00

            IN - OUT =       70175.9660              IN - OUT =       0.0000E+00

          STORAGE:                                 STORAGE:
          --------                                 --------
      STORAGE CHANGE =       70177.9937        STORAGE CHANGE =       8.4403E-15

 PERCENT DISCREPANCY IS DIFFERENCE BETWEEN IN-OUT MINUS CHANGE IN STORAGE
 DIVIDED BY THE AVERAGE OF IN AND OUT TIMES 100

 PERCENT DISCREPANCY =           0.00     PERCENT DISCREPANCY =           0.00






1
  VOLUMETRIC BUDGET FOR AGRICULTURAL FIELDS AT  END OF TIME STEP   30, STRESS PERIOD  19
  ------------------------------------------------------------------------------

     CUMULATIVE VOLUMES      L**3       RATES FOR THIS TIME STEP      L**3/T
     ------------------                 ------------------------

           IN:                                      IN:
           ---                                      ---
               AG WELLS  =   523567488.0000                 AG WELLS  =          22.4700
      DIVERSION SEGMENTS =           0.0000        DIVERSION SEGMENTS =           0.0000
           GW IRRIGATION =           0.0000             GW IRRIGATION =           0.0000
           SW IRRIGATION =           0.0000             SW IRRIGATION =           0.0000
        SYSTEM LOSSES GW =           0.0000          SYSTEM LOSSES GW =           0.0000
        SYSTEM LOSSES SW =           0.0000          SYSTEM LOSSES SW =           0.0000

                TOTAL IN =   523567488.0000                  TOTAL IN =          22.4700

          OUT:                                     OUT:
          ----                                     ----
               AG WELLS  =           0.0000                 AG WELLS  =           0.0000
      DIVERSION SEGMENTS =           0.0000        DIVERSION SEGMENTS =           0.0000
           GW IRRIGATION =   523567488.0000             GW IRRIGATION =          22.4700
           SW IRRIGATION =           0.0000             SW IRRIGATION =           0.0000
        SYSTEM LOSSES GW =           0.0000          SYSTEM LOSSES GW =           0.0000
        SYSTEM LOSSES SW =           0.0000          SYSTEM LOSSES SW =           0.0000

               TOTAL OUT =   523567488.0000                 TOTAL OUT =          22.4700

                IN - OUT =           0.0000                  IN - OUT =           0.0000

     PERCENT DISCREPANCY =           0.00         PERCENT DISCREPANCY =           0.00



1
  VOLUMETRIC BUDGET FOR ENTIRE MODEL AT END OF TIME STEP   30, STRESS PERIOD  19
  ------------------------------------------------------------------------------

     CUMULATIVE VOLUMES      L**3       RATES FOR THIS TIME STEP      L**3/T
     ------------------                 ------------------------

           IN:                                      IN:
           ---                                      ---
             STORAGE     =   677574656.0000               STORAGE     =          20.7451
       CONSTANT HEAD     =           0.0000         CONSTANT HEAD     =           0.0000
     HEAD DEP BOUNDS     =    13536171.0000       HEAD DEP BOUNDS     =           0.2855
      STREAM LEAKAGE     =   595990208.0000        STREAM LEAKAGE     =          12.8137
        UZF RECHARGE     =    37930912.0000          UZF RECHARGE     =           0.0000
               GW ET     =           0.0000                 GW ET     =           0.0000
     SURFACE LEAKAGE     =           0.0000       SURFACE LEAKAGE     =           0.0000
           AG WELLS      =           0.0000             AG WELLS      =           0.0000

                TOTAL IN =  1325031936.0000                  TOTAL IN =          33.8442

          OUT:                                     OUT:
          ----                                     ----
             STORAGE     =   282332512.0000               STORAGE     =           0.3689
       CONSTANT HEAD     =           0.0000         CONSTANT HEAD     =           0.0000
     HEAD DEP BOUNDS     =    13978924.0000       HEAD DEP BOUNDS     =           0.2960
      STREAM LEAKAGE     =   488609408.0000        STREAM LEAKAGE     =          10.3690
        UZF RECHARGE     =           0.0000          UZF RECHARGE     =           0.0000
               GW ET     =    16542006.0000                 GW ET     =           0.3403
     SURFACE LEAKAGE     =           0.0000       SURFACE LEAKAGE     =           0.0000
           AG WELLS      =   523567488.0000             AG WELLS      =          22.4700

               TOTAL OUT =  1325030400.0000                 TOTAL OUT =          33.8443

                IN - OUT =        1536.0000                  IN - OUT =      -6.8665E-05

     PERCENT DISCREPANCY =           0.00         PERCENT DISCREPANCY =          -0.00






         TIME SUMMARY AT END OF TIME STEP   30 IN STRESS PERIOD   19
                    SECONDS     MINUTES      HOURS       DAYS        YEARS
                    -----------------------------------------------------------
   TIME STEP LENGTH  87667.      1461.1      24.352      1.0147     2.77799E-03
 STRESS PERIOD TIME 2.63000E+06  43833.      730.56      30.440     8.33397E-02
         TOTAL TIME 4.74265E+07 7.90442E+05  13174.      548.92      1.5029    
1
1
                            STRESS PERIOD NO.   20, LENGTH =   2630000.    
                            -----------------------------------------------

                              NUMBER OF TIME STEPS =    30

                               MULTIPLIER FOR DELT =     1.000

                            INITIAL TIME STEP SIZE =   87666.66    

 REUSING NON-PARAMETER GHB CELLS FROM LAST STRESS PERIOD

      2 GHB CELLS

 REUSING STREAM SEGMENT DATA FROM LAST STRESS PERIOD



            AREAL INFILTRATION RATE
 READING ON UNIT   19 WITH FORMAT: (FREE)              

            1           2           3           4           5           6           7           8           9          10
 ........................................................................................................................
   1   1.0000E-10  2.0000E-10   0.000       0.000       0.000       0.000       0.000       0.000       0.000       0.000    
   2   2.0000E-10  1.0000E-10  2.0000E-10   0.000       0.000      8.0000E-10  8.0000E-10  5.0000E-10   0.000       0.000    
   3    0.000      5.0000E-10  1.0000E-10  1.0000E-10  8.0000E-10  8.0000E-10  5.0000E-10  5.0000E-10   0.000       0.000    
   4   8.0000E-10  5.0000E-10  1.0000E-10  1.0000E-10  1.0000E-10  1.0000E-10  1.0000E-10  1.0000E-10  2.0000E-10   0.000    
   5   8.0000E-10  5.0000E-10  1.0000E-10  1.0000E-10  1.0000E-10  1.0000E-10  1.0000E-10  1.0000E-10  1.0000E-10  1.0000E-10
   6   8.0000E-10  5.0000E-10  5.0000E-10  2.0000E-10  2.0000E-10  1.0000E-10  1.0000E-10  1.0000E-10  1.0000E-10  5.0000E-10
   7   8.0000E-10  5.0000E-10  5.0000E-10  2.0000E-10  2.0000E-10  1.0000E-10  1.0000E-10  2.0000E-10  2.0000E-10   0.000    
   8    0.000      5.0000E-10  5.0000E-10  2.0000E-10  2.0000E-10  1.0000E-10  1.0000E-10  2.0000E-10  5.0000E-10   0.000    
   9    0.000      5.0000E-10  5.0000E-10  2.0000E-10  2.0000E-10  1.0000E-10  1.0000E-10  2.0000E-10  5.0000E-10   0.000    
  10    0.000      5.0000E-10  5.0000E-10  2.0000E-10  2.0000E-10  1.0000E-10  1.0000E-10  2.0000E-10  5.0000E-10  8.0000E-10
  11    0.000      1.0000E-10  1.0000E-10  1.0000E-10  1.0000E-10  1.0000E-10  1.0000E-10  2.0000E-10  5.0000E-10   0.000    
  12   1.0000E-10  1.0000E-10  1.0000E-10  1.0000E-10  1.0000E-10  1.0000E-10  1.0000E-10  1.0000E-10  2.0000E-10   0.000    
  13   1.0000E-10  1.0000E-10  2.0000E-10  2.0000E-10  2.0000E-10  2.0000E-10  2.0000E-10  1.0000E-10  1.0000E-10   0.000    
  14    0.000      2.0000E-10  5.0000E-10  5.0000E-10  5.0000E-10  5.0000E-10  5.0000E-10  2.0000E-10  1.0000E-10   0.000    
  15    0.000       0.000      8.0000E-10  8.0000E-10  8.0000E-10  8.0000E-10   0.000       0.000       0.000       0.000    

                  ET RATE =  4.000000E-07

 USING ET EXTINCTION DEPTH FROM PREVIOUS STRESS PERIOD. CURRENT PERIOD IS:      20

 USING EXTINCTION WATER CONTENT FROM PREVIOUS STRESS PERIOD. CURRENT PERIOD IS:      20

 USING AIR ENTRY PRESSURE FROM PREVIOUS STRESS PERIOD. CURRENT PERIOD IS:      20

 USING ROOT PRESSURE HEAD FROM PREVIOUS STRESS PERIOD. CURRENT PERIOD IS:      20

 USING ROOT ACTIVITY FROM PREVIOUS STRESS PERIOD. CURRENT PERIOD IS:      20

 PROCESSING AG STRESS PERIOD DATA

 READING AG STRESS PERIOD DATA

 READING IRRIGATION WELL

 END PROCESSING AG STRESS PERIOD DATA OPTIONS
 
 SOLVING FOR HEAD 
                                                   Max.-Head-Change                         Max.-Flux-Residual
  Residual-Control   Outer-Iter.   Inner-Iter.     Column Row Layer    Maximum-Head-Change  Column Row Layer    Maximum-Flux-Residual          L2-NORM 
          0                 1           2             4    7     1      -0.1634954542E+00       4    7    1        -0.8549214556E+01      0.2003126602E+02
          0                 2           2             6    7     1       0.1323723111E-02       6    7    1         0.7260870244E-01      0.1996814200E+00
          0                 3           2             5    6     1      -0.1204030129E-01       4    7    1        -0.6488386753E+00      0.1581949556E+01
          0                 4           2             4    7     1      -0.9015564743E-02       5    7    1        -0.4987313973E+00      0.1188500217E+01
          0                 5           2             5    6     1       0.8358781046E-03       5    6    1         0.4680036315E-01      0.7727432196E-01
          0                 6           1             5    6     1      -0.5692023970E-04       5    6    1        -0.3314496908E-02      0.4706397200E-02

    ------------------------------------------------
       NWT REQUIRED            6 OUTER ITERATIONS 
       AND A TOTAL OF         11 INNER ITERATIONS.
    ------------------------------------------------

 OUTPUT CONTROL FOR STRESS PERIOD   20   TIME STEP    1
    PRINT BUDGET
    SAVE BUDGET
    SAVE BUDGET
    SAVE HEAD FOR ALL LAYERS
 UBDSV1 SAVING "         STORAGE" ON UNIT 102 AT TIME STEP  1, STRESS PERIOD  20
 UBDSV2 SAVING "   CONSTANT HEAD" ON UNIT 102 AT TIME STEP  1, STRESS PERIOD  20
 UBDSV1 SAVING "FLOW RIGHT FACE " ON UNIT 102 AT TIME STEP  1, STRESS PERIOD  20
 UBDSV1 SAVING "FLOW FRONT FACE " ON UNIT 102 AT TIME STEP  1, STRESS PERIOD  20

  HEAD DEP BOUNDS   PERIOD   20   STEP     1
 BOUNDARY      1   LAYER   1   ROW    13   COL     1   RATE   -0.295983    
 BOUNDARY      2   LAYER   1   ROW    14   COL     9   RATE    0.285491    



 STREAM LISTING     PERIOD     20   STEP        1

 LAYER ROW COL. STREAM  RCH.  FLOW INTO     FLOW TO   FLOW OUT OF   OVRLND.     DIRECT     STREAM       STREAM     STREAM     STREAM   STREAMBED  STREAMBED
                SEG.NO.  NO.  STRM. RCH.    AQUIFER    STRM. RCH.    RUNOFF     PRECIP       ET          HEAD       DEPTH      WIDTH   CONDCTNC.   GRADIENT

   1    1    1     1     1    5.4001E+01  3.5066E-01   5.3650E+01  0.000E+00  0.000E+00  0.000E+00  1.09450E+03  1.450E+00  1.751E+01  7.879E-02  1.483E+00
   1    2    2     1     2    5.3650E+01  5.4294E-01   5.3107E+01  0.000E+00  0.000E+00  0.000E+00  1.08950E+03  1.445E+00  1.745E+01  1.222E-01  1.482E+00
   1    3    3     1     3    5.3107E+01  4.6294E-01   5.2644E+01  0.000E+00  0.000E+00  0.000E+00  1.08386E+03  1.438E+00  1.739E+01  1.043E-01  1.479E+00
   1    3    4     1     4    5.2644E+01  4.2621E-01   5.2218E+01  0.000E+00  0.000E+00  0.000E+00  1.07884E+03  1.432E+00  1.733E+01  9.616E-02  1.477E+00
   1    4    5     2     1    5.0218E+01  3.7682E-01   4.9841E+01  0.000E+00  0.000E+00  0.000E+00  1.07376E+03  1.831E+00  1.200E+01  7.800E-02  1.610E+00
   1    5    6     2     2    4.9841E+01  2.8942E-01   4.9552E+01  0.000E+00  0.000E+00  0.000E+00  1.06833E+03  1.824E+00  1.200E+01  6.000E-02  1.608E+00
   1    6    6     2     3    4.9552E+01  2.8904E-01   4.9263E+01  0.000E+00  0.000E+00  0.000E+00  1.06361E+03  1.817E+00  1.200E+01  6.000E-02  1.606E+00
   1    7    6     2     4    4.9263E+01  2.8865E-01   4.8974E+01  0.000E+00  0.000E+00  0.000E+00  1.05889E+03  1.811E+00  1.200E+01  6.000E-02  1.604E+00
   1    8    6     2     5    4.8974E+01  2.8827E-01   4.8686E+01  0.000E+00  0.000E+00  0.000E+00  1.05416E+03  1.804E+00  1.200E+01  6.000E-02  1.601E+00
   1    3    5     3     1    2.0000E+00  2.8252E-01   1.7175E+00  0.000E+00  0.000E+00  0.000E+00  1.07555E+03  1.909E+00  9.636E+00  7.227E-02  1.955E+00
   1    3    6     3     2    1.7175E+00  2.4905E-01   1.4684E+00  0.000E+00  0.000E+00  0.000E+00  1.07264E+03  1.727E+00  8.909E+00  6.682E-02  1.864E+00
   1    3    7     3     3    1.4684E+00  1.9718E-01   1.2712E+00  0.000E+00  0.000E+00  0.000E+00  1.06987E+03  1.555E+00  8.218E+00  5.547E-02  1.777E+00
   1    4    8     3     4    1.2712E+00  2.2567E-01   1.0456E+00  0.000E+00  0.000E+00  0.000E+00  1.06682E+03  1.364E+00  7.455E+00  6.709E-02  1.682E+00
   1    5    8     3     5    1.0456E+00  1.5790E-01   8.8768E-01  0.000E+00  0.000E+00  0.000E+00  1.06362E+03  1.164E+00  6.655E+00  4.991E-02  1.582E+00
   1    6    8     3     6    8.8768E-01  5.5980E-02   8.3170E-01  0.000E+00  0.000E+00  0.000E+00  1.06158E+03  1.036E+00  6.145E+00  1.844E-02  1.518E+00
   1    5   10     4     1    1.0000E+01  9.0919E-02   9.9091E+00  0.000E+00  0.000E+00  0.000E+00  1.07836E+03  6.368E-01  1.000E+01  2.500E-02  1.212E+00
   1    5    9     4     2    9.9091E+00  1.8158E-01   9.7275E+00  0.000E+00  0.000E+00  0.000E+00  1.07154E+03  6.315E-01  1.000E+01  5.000E-02  1.211E+00
   1    6    8     4     3    9.7275E+00  1.2689E-01   9.6006E+00  0.000E+00  0.000E+00  0.000E+00  1.06381E+03  6.256E-01  1.000E+01  3.500E-02  1.209E+00
   1    6    8     5     1    1.0432E+01  2.2686E-01   1.0205E+01  0.000E+00  0.000E+00  0.000E+00  1.05868E+03  6.790E-01  1.542E+01  6.166E-02  1.226E+00
   1    7    7     5     2    1.0205E+01  2.7894E-01   9.9265E+00  0.000E+00  0.000E+00  0.000E+00  1.05417E+03  6.732E-01  1.519E+01  7.594E-02  1.224E+00
   1    8    7     5     3    9.9265E+00  1.9221E-01   9.7343E+00  0.000E+00  0.000E+00  0.000E+00  1.04992E+03  6.676E-01  1.497E+01  5.241E-02  1.223E+00
   1    8    6     5     4    9.7343E+00  1.3577E-01   9.5985E+00  0.000E+00  0.000E+00  0.000E+00  1.04691E+03  6.637E-01  1.482E+01  3.706E-02  1.221E+00
   1    9    6     6     1    5.8284E+01  3.0156E-01   5.7983E+01  0.000E+00  0.000E+00  0.000E+00  1.04475E+03  2.026E+00  1.200E+01  6.000E-02  1.675E+00
   1   10    7     6     2    5.7983E+01  3.0118E-01   5.7682E+01  0.000E+00  0.000E+00  0.000E+00  1.04020E+03  2.020E+00  1.200E+01  6.000E-02  1.673E+00
   1   11    7     6     3    5.7682E+01  3.0080E-01   5.7381E+01  0.000E+00  0.000E+00  0.000E+00  1.03565E+03  2.013E+00  1.200E+01  6.000E-02  1.671E+00
   1   12    7     6     4    5.7381E+01  3.0042E-01   5.7080E+01  0.000E+00  0.000E+00  0.000E+00  1.03110E+03  2.007E+00  1.200E+01  6.000E-02  1.669E+00
   1   13    7     6     5    5.7080E+01  1.9647E-02   5.7061E+01  0.000E+00  0.000E+00  0.000E+00  1.02791E+03  2.004E+00  1.200E+01  2.400E-02  2.729E-01
   1   14    9     7     1    1.5000E+02  1.3319E+00   1.4867E+02  0.000E+00  0.000E+00  0.000E+00  1.03987E+03  2.288E+00  5.529E+01  5.593E-01  7.938E-01
   1   13    8     7     2    1.4867E+02  1.8270E+00   1.4684E+02  0.000E+00  0.000E+00  0.000E+00  1.03478E+03  2.279E+00  5.526E+01  6.148E-01  9.906E-01
   1   13    7     7     3    1.4684E+02  1.4497E+00   1.4539E+02  0.000E+00  0.000E+00  0.000E+00  1.02969E+03  2.271E+00  5.522E+01  5.585E-01  8.653E-01
   1   13    6     8     1    2.0245E+02  1.0306E+00   2.0142E+02  0.000E+00  0.000E+00  0.000E+00  1.02502E+03  3.149E+00  4.566E+01  4.653E-01  7.383E-01
   1   13    5     8     2    2.0142E+02  2.3563E-01   2.0119E+02  0.000E+00  0.000E+00  0.000E+00  1.01877E+03  3.145E+00  4.561E+01  4.648E-01  1.690E-01
   1   13    4     8     3    2.0119E+02 -2.2535E+00   2.0344E+02  0.000E+00  0.000E+00  0.000E+00  1.01253E+03  3.151E+00  4.569E+01  4.656E+00 -1.613E-01
   1   13    3     8     4    2.0344E+02 -3.4355E+00   2.0688E+02  0.000E+00  0.000E+00  0.000E+00  1.00629E+03  3.168E+00  4.593E+01  4.681E+00 -2.447E-01
   1   13    2     8     5    2.0688E+02 -2.6041E+00   2.0948E+02  0.000E+00  0.000E+00  0.000E+00  1.00006E+03  3.185E+00  4.619E+01  4.706E+00 -1.844E-01
   1   13    1     8     6    2.0948E+02 -2.0290E+00   2.1151E+02  0.000E+00  0.000E+00  0.000E+00  9.95073E+02  3.198E+00  4.638E+01  2.836E+00 -2.385E-01



 UBDSV3 SAVING "           GW ET" ON UNIT  61 AT TIME STEP  1, STRESS PERIOD  20
 UBDSV3 SAVING "    UZF RECHARGE" ON UNIT  61 AT TIME STEP  1, STRESS PERIOD  20
 UBDSV3 SAVING " SURFACE LEAKAGE" ON UNIT  61 AT TIME STEP  1, STRESS PERIOD  20
 UBDSV3 SAVING "       HORT+DUNN" ON UNIT  61 AT TIME STEP  1, STRESS PERIOD  20
 UBDSV3 SAVING "  STORAGE CHANGE" ON UNIT  61 AT TIME STEP  1, STRESS PERIOD  20


UNSATURATED ZONE PACKAGE VOLUMETRIC BUDGET FOR  TIME STEP     1 STRESS PERIOD   20
  ------------------------------------------------------------------------------



     CUMULATIVE VOLUMES      L**3       RATES FOR THIS TIME STEP      L**3/T
     ------------------                 ------------------------

           IN:                                      IN:
           ---                                      ---
        INFILTRATION =   570132272.0585          INFILTRATION =          72.6628

          OUT:                                     OUT:
          ----                                     ----
              UZF ET =   530866988.0009                UZF ET =          58.2420
        UZF RECHARGE =    37930890.8416          UZF RECHARGE =       0.0000E+00

            IN - OUT =     1334393.2160              IN - OUT =          14.4207

          STORAGE:                                 STORAGE:
          --------                                 --------
      STORAGE CHANGE =     1334395.3059        STORAGE CHANGE =          14.4207

 PERCENT DISCREPANCY IS DIFFERENCE BETWEEN IN-OUT MINUS CHANGE IN STORAGE
 DIVIDED BY THE AVERAGE OF IN AND OUT TIMES 100

 PERCENT DISCREPANCY =           0.00     PERCENT DISCREPANCY =           0.00






 

            AG WELLS      PERIOD   20   STEP   1
 AG WELL      1   LAYER   1   ROW     6   COL     4   RATE    -11.9692    
 AG WELL      2   LAYER   1   ROW     6   COL     5   RATE    -11.9692    
 AG WELL      3   LAYER   1   ROW     7   COL     4   RATE    -11.9692    
 AG WELL      4   LAYER   1   ROW     7   COL     5   RATE    -11.9692    
 AG WELL      5   LAYER   1   ROW     8   COL     4   RATE    -11.9692    
 AG WELL      6   LAYER   1   ROW     8   COL     5   RATE    -11.9692    
 
 

        GW IRRIGATION     PERIOD   20   STEP   1
 AG WELL      1   ROW     6   COL     4   RATE     11.9692    
 AG WELL      2   ROW     6   COL     5   RATE     11.9692    
 AG WELL      3   ROW     7   COL     4   RATE     11.9692    
 AG WELL      4   ROW     7   COL     5   RATE     11.9692    
 AG WELL      5   ROW     8   COL     4   RATE     11.9692    
 AG WELL      6   ROW     8   COL     5   RATE     11.9692    
 
1
  VOLUMETRIC BUDGET FOR AGRICULTURAL FIELDS AT  END OF TIME STEP    1, STRESS PERIOD  20
  ------------------------------------------------------------------------------

     CUMULATIVE VOLUMES      L**3       RATES FOR THIS TIME STEP      L**3/T
     ------------------                 ------------------------

           IN:                                      IN:
           ---                                      ---
               AG WELLS  =   529863296.0000                 AG WELLS  =          71.8153
      DIVERSION SEGMENTS =           0.0000        DIVERSION SEGMENTS =           0.0000
           GW IRRIGATION =           0.0000             GW IRRIGATION =           0.0000
           SW IRRIGATION =           0.0000             SW IRRIGATION =           0.0000
        SYSTEM LOSSES GW =           0.0000          SYSTEM LOSSES GW =           0.0000
        SYSTEM LOSSES SW =           0.0000          SYSTEM LOSSES SW =           0.0000

                TOTAL IN =   529863296.0000                  TOTAL IN =          71.8153

          OUT:                                     OUT:
          ----                                     ----
               AG WELLS  =           0.0000                 AG WELLS  =           0.0000
      DIVERSION SEGMENTS =           0.0000        DIVERSION SEGMENTS =           0.0000
           GW IRRIGATION =   529863296.0000             GW IRRIGATION =          71.8153
           SW IRRIGATION =           0.0000             SW IRRIGATION =           0.0000
        SYSTEM LOSSES GW =           0.0000          SYSTEM LOSSES GW =           0.0000
        SYSTEM LOSSES SW =           0.0000          SYSTEM LOSSES SW =           0.0000

               TOTAL OUT =   529863296.0000                 TOTAL OUT =          71.8153

                IN - OUT =           0.0000                  IN - OUT =           0.0000

     PERCENT DISCREPANCY =           0.00         PERCENT DISCREPANCY =           0.00




 HEAD WILL BE SAVED ON UNIT   62 AT END OF TIME STEP    1, STRESS PERIOD   20
1
  VOLUMETRIC BUDGET FOR ENTIRE MODEL AT END OF TIME STEP    1, STRESS PERIOD  20
  ------------------------------------------------------------------------------

     CUMULATIVE VOLUMES      L**3       RATES FOR THIS TIME STEP      L**3/T
     ------------------                 ------------------------

           IN:                                      IN:
           ---                                      ---
             STORAGE     =   683750080.0000               STORAGE     =          70.4418
       CONSTANT HEAD     =           0.0000         CONSTANT HEAD     =           0.0000
     HEAD DEP BOUNDS     =    13561199.0000       HEAD DEP BOUNDS     =           0.2855
      STREAM LEAKAGE     =   597113664.0000        STREAM LEAKAGE     =          12.8148
        UZF RECHARGE     =    37930912.0000          UZF RECHARGE     =           0.0000
               GW ET     =           0.0000                 GW ET     =           0.0000
     SURFACE LEAKAGE     =           0.0000       SURFACE LEAKAGE     =           0.0000
           AG WELLS      =           0.0000             AG WELLS      =           0.0000

                TOTAL IN =  1332355840.0000                  TOTAL IN =          83.5421

          OUT:                                     OUT:
          ----                                     ----
             STORAGE     =   282364832.0000               STORAGE     =           0.3685
       CONSTANT HEAD     =           0.0000         CONSTANT HEAD     =           0.0000
     HEAD DEP BOUNDS     =    14004872.0000       HEAD DEP BOUNDS     =           0.2960
      STREAM LEAKAGE     =   489514304.0000        STREAM LEAKAGE     =          10.3221
        UZF RECHARGE     =           0.0000          UZF RECHARGE     =           0.0000
               GW ET     =    16606873.0000                 GW ET     =           0.7399
     SURFACE LEAKAGE     =           0.0000       SURFACE LEAKAGE     =           0.0000
           AG WELLS      =   529863296.0000             AG WELLS      =          71.8153

               TOTAL OUT =  1332354176.0000                 TOTAL OUT =          83.5418

                IN - OUT =        1664.0000                  IN - OUT =       2.5177E-04

     PERCENT DISCREPANCY =           0.00         PERCENT DISCREPANCY =           0.00






         TIME SUMMARY AT END OF TIME STEP    1 IN STRESS PERIOD   20
                    SECONDS     MINUTES      HOURS       DAYS        YEARS
                    -----------------------------------------------------------
   TIME STEP LENGTH  87667.      1461.1      24.352      1.0147     2.77799E-03
 STRESS PERIOD TIME  87667.      1461.1      24.352      1.0147     2.77799E-03
         TOTAL TIME 4.75142E+07 7.91903E+05  13198.      549.93      1.5056    
1
 
 SOLVING FOR HEAD 
                                                   Max.-Head-Change                         Max.-Flux-Residual
  Residual-Control   Outer-Iter.   Inner-Iter.     Column Row Layer    Maximum-Head-Change  Column Row Layer    Maximum-Flux-Residual          L2-NORM 
          0                 1           2             4    7     1      -0.1622051810E+00       4    7    1        -0.8485535808E+01      0.1963548451E+02
          0                 2           2             6    7     1       0.1544748573E-02       6    7    1         0.8496791508E-01      0.2305711398E+00
          0                 3           2             4    6     1      -0.1217496754E-01       4    7    1        -0.6483959909E+00      0.1578244732E+01
          0                 4           2             4    7     1      -0.9015934606E-02       5    7    1        -0.4987665082E+00      0.1173322374E+01
          0                 5           2             4    6     1       0.8441731200E-03       5    8    1         0.4681166119E-01      0.8758760127E-01
          0                 6           1             4    6     1      -0.5748508958E-04       5    8    1        -0.3314490220E-02      0.5694443845E-02

    ------------------------------------------------
       NWT REQUIRED            6 OUTER ITERATIONS 
       AND A TOTAL OF         11 INNER ITERATIONS.
    ------------------------------------------------

 NO OUTPUT CONTROL FOR STRESS PERIOD   20   TIME STEP    2
 
 SOLVING FOR HEAD 
                                                   Max.-Head-Change                         Max.-Flux-Residual
  Residual-Control   Outer-Iter.   Inner-Iter.     Column Row Layer    Maximum-Head-Change  Column Row Layer    Maximum-Flux-Residual          L2-NORM 
          0                 1           2             4    7     1      -0.1608564937E+00       4    7    1        -0.8418502063E+01      0.1926201013E+02
          0                 2           2             6    7     1       0.1755644857E-02       6    7    1         0.9677225728E-01      0.2689287156E+00
          0                 3           2             5    7     1      -0.1221069615E-01       4    7    1        -0.6479466070E+00      0.1574227870E+01
          0                 4           2             4    7     1      -0.9016321457E-02       4    7    1        -0.4991716226E+00      0.1142152512E+01
          0                 5           2             5    7     1       0.8474326012E-03       5    7    1         0.4637848087E-01      0.1051237933E+00
          0                 6           1             5    7     1      -0.5770711538E-04       5    7    1        -0.3265901756E-02      0.7261433121E-02

    ------------------------------------------------
       NWT REQUIRED            6 OUTER ITERATIONS 
       AND A TOTAL OF         11 INNER ITERATIONS.
    ------------------------------------------------

 NO OUTPUT CONTROL FOR STRESS PERIOD   20   TIME STEP    3
 
 SOLVING FOR HEAD 
                                                   Max.-Head-Change                         Max.-Flux-Residual
  Residual-Control   Outer-Iter.   Inner-Iter.     Column Row Layer    Maximum-Head-Change  Column Row Layer    Maximum-Flux-Residual          L2-NORM 
          0                 1           2             4    7     1      -0.1594549734E+00       4    7    1        -0.8348420118E+01      0.1890836881E+02
          0                 2           2             6    7     1       0.1956736051E-02       6    7    1         0.1080382905E+00      0.3101664409E+00
          0                 3           2             5    7     1      -0.1218406277E-01       4    7    1        -0.6474762804E+00      0.1570334907E+01
          0                 4           2             4    7     1      -0.9016724226E-02       4    7    1        -0.4991862192E+00      0.1142525706E+01
          0                 5           2             5    7     1       0.8476937441E-03       5    7    1         0.4639236081E-01      0.1051637229E+00
          0                 6           1             5    7     1      -0.5772489782E-04       5    7    1        -0.3266866340E-02      0.7264252312E-02

    ------------------------------------------------
       NWT REQUIRED            6 OUTER ITERATIONS 
       AND A TOTAL OF         11 INNER ITERATIONS.
    ------------------------------------------------

 NO OUTPUT CONTROL FOR STRESS PERIOD   20   TIME STEP    4
 
 SOLVING FOR HEAD 
                                                   Max.-Head-Change                         Max.-Flux-Residual
  Residual-Control   Outer-Iter.   Inner-Iter.     Column Row Layer    Maximum-Head-Change  Column Row Layer    Maximum-Flux-Residual          L2-NORM 
          0                 1           2             4    7     1      -0.1580061610E+00       4    7    1        -0.8275594984E+01      0.1857270712E+02
          0                 2           2             6    7     1       0.2148268776E-02       6    7    1         0.1187784635E+00      0.3520829611E+00
          0                 3           2             5    7     1      -0.1215785679E-01       4    7    1        -0.6469862496E+00      0.1566580658E+01
          0                 4           2             4    7     1      -0.9017140947E-02       4    7    1        -0.4992017342E+00      0.1142885215E+01
          0                 5           2             5    7     1       0.8479508174E-03       5    7    1         0.4640604332E-01      0.1052021267E+00
          0                 6           1             5    7     1      -0.5774240383E-04       5    7    1        -0.3267817306E-02      0.7266963082E-02

    ------------------------------------------------
       NWT REQUIRED            6 OUTER ITERATIONS 
       AND A TOTAL OF         11 INNER ITERATIONS.
    ------------------------------------------------

 NO OUTPUT CONTROL FOR STRESS PERIOD   20   TIME STEP    5
 
 SOLVING FOR HEAD 
                                                   Max.-Head-Change                         Max.-Flux-Residual
  Residual-Control   Outer-Iter.   Inner-Iter.     Column Row Layer    Maximum-Head-Change  Column Row Layer    Maximum-Flux-Residual          L2-NORM 
          0                 1           2             4    7     1      -0.1565153334E+00       4    7    1        -0.8200318106E+01      0.1825352539E+02
          0                 2           2             5    8     1      -0.2466226342E-02       5    8    1        -0.1379980492E+00      0.3936264934E+00
          0                 3           2             5    7     1      -0.1213209404E-01       4    7    1        -0.6464785633E+00      0.1562957799E+01
          0                 4           2             4    7     1      -0.9017570094E-02       4    7    1        -0.4992180816E+00      0.1143231721E+01
          0                 5           2             5    7     1       0.8482036586E-03       5    7    1         0.4641951712E-01      0.1052390827E+00
          0                 6           1             5    7     1      -0.5775962099E-04       5    7    1        -0.3268753815E-02      0.7269570788E-02

    ------------------------------------------------
       NWT REQUIRED            6 OUTER ITERATIONS 
       AND A TOTAL OF         11 INNER ITERATIONS.
    ------------------------------------------------

 NO OUTPUT CONTROL FOR STRESS PERIOD   20   TIME STEP    6
 
 SOLVING FOR HEAD 
                                                   Max.-Head-Change                         Max.-Flux-Residual
  Residual-Control   Outer-Iter.   Inner-Iter.     Column Row Layer    Maximum-Head-Change  Column Row Layer    Maximum-Flux-Residual          L2-NORM 
          0                 1           2             4    7     1      -0.1549871758E+00       4    7    1        -0.8122848437E+01      0.1794955704E+02
          0                 2           2             5    8     1      -0.2831822394E-02       5    8    1        -0.1580407176E+00      0.4342863173E+00
          0                 3           2             5    7     1      -0.1210679065E-01       4    7    1        -0.6459550429E+00      0.1559459638E+01
          0                 4           2             4    7     1      -0.9018010308E-02       4    7    1        -0.4992351847E+00      0.1143565857E+01
          0                 5           2             5    7     1       0.8484521018E-03       5    7    1         0.4643277088E-01      0.1052746628E+00
          0                 6           1             5    7     1      -0.5777653922E-04       5    7    1        -0.3269675083E-02      0.7272080626E-02

    ------------------------------------------------
       NWT REQUIRED            6 OUTER ITERATIONS 
       AND A TOTAL OF         11 INNER ITERATIONS.
    ------------------------------------------------

 NO OUTPUT CONTROL FOR STRESS PERIOD   20   TIME STEP    7
 
 SOLVING FOR HEAD 
                                                   Max.-Head-Change                         Max.-Flux-Residual
  Residual-Control   Outer-Iter.   Inner-Iter.     Column Row Layer    Maximum-Head-Change  Column Row Layer    Maximum-Flux-Residual          L2-NORM 
          0                 1           2             4    7     1      -0.1534264759E+00       4    7    1        -0.8043450866E+01      0.1765970031E+02
          0                 2           2             5    8     1      -0.3178676145E-02       5    8    1        -0.1770384936E+00      0.4738088330E+00
          0                 3           2             4    7     1      -0.1235339174E-01       4    7    1        -0.6452942420E+00      0.1556031269E+01
          0                 4           2             4    7     1      -0.8800424650E-02       5    8    1        -0.4611382649E+00      0.1127782334E+01
          0                 5           2             4    7     1       0.8560409305E-03       5    8    1         0.4612694364E-01      0.1128009673E+00
          0                 6           1             4    7     1      -0.5829321851E-04       5    8    1        -0.3229408977E-02      0.7897304266E-02

    ------------------------------------------------
       NWT REQUIRED            6 OUTER ITERATIONS 
       AND A TOTAL OF         11 INNER ITERATIONS.
    ------------------------------------------------

 NO OUTPUT CONTROL FOR STRESS PERIOD   20   TIME STEP    8
 
 SOLVING FOR HEAD 
                                                   Max.-Head-Change                         Max.-Flux-Residual
  Residual-Control   Outer-Iter.   Inner-Iter.     Column Row Layer    Maximum-Head-Change  Column Row Layer    Maximum-Flux-Residual          L2-NORM 
          0                 1           2             4    7     1      -0.1518371794E+00       4    7    1        -0.7962344604E+01      0.1738294276E+02
          0                 2           2             5    8     1      -0.3508065219E-02       5    8    1        -0.1950628937E+00      0.5119126453E+00
          0                 3           2             4    7     1      -0.1233753093E-01       4    7    1        -0.6444840450E+00      0.1552660019E+01
          0                 4           2             4    7     1      -0.8802041574E-02       5    8    1        -0.4613169065E+00      0.1128121621E+01
          0                 5           2             4    7     1       0.8561982135E-03       5    8    1         0.4614477178E-01      0.1128348706E+00
          0                 6           1             4    7     1      -0.5830392892E-04       5    8    1        -0.3230655538E-02      0.7899674325E-02

    ------------------------------------------------
       NWT REQUIRED            6 OUTER ITERATIONS 
       AND A TOTAL OF         11 INNER ITERATIONS.
    ------------------------------------------------

 NO OUTPUT CONTROL FOR STRESS PERIOD   20   TIME STEP    9
 
 SOLVING FOR HEAD 
                                                   Max.-Head-Change                         Max.-Flux-Residual
  Residual-Control   Outer-Iter.   Inner-Iter.     Column Row Layer    Maximum-Head-Change  Column Row Layer    Maximum-Flux-Residual          L2-NORM 
          0                 1           2             4    7     1      -0.1502236337E+00       4    7    1        -0.7879770423E+01      0.1711845887E+02
          0                 2           2             5    8     1      -0.3821141230E-02       5    8    1        -0.2121798006E+00      0.5491283276E+00
          0                 3           2             4    7     1      -0.1232142918E-01       4    7    1        -0.6436591572E+00      0.1549395208E+01
          0                 4           2             4    7     1      -0.8803683369E-02       5    8    1        -0.4614865797E+00      0.1128450357E+01
          0                 5           2             4    7     1       0.8563579157E-03       5    8    1         0.4616170535E-01      0.1128677178E+00
          0                 6           1             4    7     1      -0.5831480382E-04       5    8    1        -0.3231839533E-02      0.7901970421E-02

    ------------------------------------------------
       NWT REQUIRED            6 OUTER ITERATIONS 
       AND A TOTAL OF         11 INNER ITERATIONS.
    ------------------------------------------------

 NO OUTPUT CONTROL FOR STRESS PERIOD   20   TIME STEP   10
 
 SOLVING FOR HEAD 
                                                   Max.-Head-Change                         Max.-Flux-Residual
  Residual-Control   Outer-Iter.   Inner-Iter.     Column Row Layer    Maximum-Head-Change  Column Row Layer    Maximum-Flux-Residual          L2-NORM 
          0                 1           2             4    7     1      -0.1485894890E+00       4    7    1        -0.7795931681E+01      0.1686539547E+02
          0                 2           2             5    8     1      -0.4118959798E-02       5    8    1        -0.2284475683E+00      0.5848726088E+00
          0                 3           2             4    7     1      -0.1230512213E-01       4    7    1        -0.6428216115E+00      0.1546230533E+01
          0                 4           2             4    7     1      -0.8805346407E-02       5    8    1        -0.4616478646E+00      0.1128769090E+01
          0                 5           2             4    7     1       0.8565196844E-03       5    8    1         0.4617780235E-01      0.1128995663E+00
          0                 6           1             4    7     1      -0.5832581978E-04       5    8    1        -0.3232965083E-02      0.7904201807E-02

    ------------------------------------------------
       NWT REQUIRED            6 OUTER ITERATIONS 
       AND A TOTAL OF         11 INNER ITERATIONS.
    ------------------------------------------------

 NO OUTPUT CONTROL FOR STRESS PERIOD   20   TIME STEP   11
 
 SOLVING FOR HEAD 
                                                   Max.-Head-Change                         Max.-Flux-Residual
  Residual-Control   Outer-Iter.   Inner-Iter.     Column Row Layer    Maximum-Head-Change  Column Row Layer    Maximum-Flux-Residual          L2-NORM 
          0                 1           2             4    7     1      -0.1469381507E+00       4    7    1        -0.7711017980E+01      0.1662299587E+02
          0                 2           2             5    8     1      -0.4402555811E-02       5    8    1        -0.2439246720E+00      0.6193601227E+00
          0                 3           2             4    7     1      -0.1228864396E-01       4    7    1        -0.6419733033E+00      0.1543161738E+01
          0                 4           2             4    7     1      -0.8807027196E-02       5    8    1        -0.4618013372E+00      0.1129078237E+01
          0                 5           2             4    7     1       0.8566831800E-03       5    8    1         0.4619312018E-01      0.1129304566E+00
          0                 6           1             4    7     1      -0.5833695372E-04       5    8    1        -0.3234036171E-02      0.7906356344E-02

    ------------------------------------------------
       NWT REQUIRED            6 OUTER ITERATIONS 
       AND A TOTAL OF         11 INNER ITERATIONS.
    ------------------------------------------------

 NO OUTPUT CONTROL FOR STRESS PERIOD   20   TIME STEP   12
 
 SOLVING FOR HEAD 
                                                   Max.-Head-Change                         Max.-Flux-Residual
  Residual-Control   Outer-Iter.   Inner-Iter.     Column Row Layer    Maximum-Head-Change  Column Row Layer    Maximum-Flux-Residual          L2-NORM 
          0                 1           2             4    7     1      -0.1452730442E+00       4    7    1        -0.7625220391E+01      0.1639059616E+02
          0                 2           2             5    8     1      -0.4672805767E-02       5    8    1        -0.2586603840E+00      0.6526291035E+00
          0                 3           2             4    7     1      -0.1227202884E-01       4    7    1        -0.6411161428E+00      0.1540184609E+01
          0                 4           2             4    7     1      -0.8808722249E-02       5    8    1        -0.4619474833E+00      0.1129378204E+01
          0                 5           2             4    7     1       0.8568480627E-03       5    8    1         0.4620770729E-01      0.1129604300E+00
          0                 6           1             4    7     1      -0.5834818103E-04       5    8    1        -0.3235056185E-02      0.7908451812E-02

    ------------------------------------------------
       NWT REQUIRED            6 OUTER ITERATIONS 
       AND A TOTAL OF         11 INNER ITERATIONS.
    ------------------------------------------------

 NO OUTPUT CONTROL FOR STRESS PERIOD   20   TIME STEP   13
 
 SOLVING FOR HEAD 
                                                   Max.-Head-Change                         Max.-Flux-Residual
  Residual-Control   Outer-Iter.   Inner-Iter.     Column Row Layer    Maximum-Head-Change  Column Row Layer    Maximum-Flux-Residual          L2-NORM 
          0                 1           2             4    7     1      -0.1435970847E+00       4    7    1        -0.7538701885E+01      0.1616756257E+02
          0                 2           2             5    8     1      -0.4930590011E-02       5    8    1        -0.2727040683E+00      0.6847208204E+00
          0                 3           2             4    7     1      -0.1225530583E-01       4    7    1        -0.6402517591E+00      0.1537295081E+01
          0                 4           2             4    7     1      -0.8810428593E-02       5    8    1        -0.4620867905E+00      0.1129669384E+01
          0                 5           2             4    7     1       0.8570140438E-03       5    8    1         0.4622161227E-01      0.1129895258E+00
          0                 6           1             4    7     1      -0.5835948395E-04       5    8    1        -0.3236028492E-02      0.7910488726E-02

    ------------------------------------------------
       NWT REQUIRED            6 OUTER ITERATIONS 
       AND A TOTAL OF         11 INNER ITERATIONS.
    ------------------------------------------------

 NO OUTPUT CONTROL FOR STRESS PERIOD   20   TIME STEP   14
 
 SOLVING FOR HEAD 
                                                   Max.-Head-Change                         Max.-Flux-Residual
  Residual-Control   Outer-Iter.   Inner-Iter.     Column Row Layer    Maximum-Head-Change  Column Row Layer    Maximum-Flux-Residual          L2-NORM 
          0                 1           2             4    7     1      -0.1419131027E+00       4    7    1        -0.7451620929E+01      0.1595332613E+02
          0                 2           2             5    8     1      -0.5176680178E-02       5    8    1        -0.2860990215E+00      0.7156839140E+00
          0                 3           2             4    7     1      -0.1223850318E-01       4    7    1        -0.6393817362E+00      0.1534489314E+01
          0                 4           2             4    7     1      -0.8812143344E-02       5    8    1        -0.4622196861E+00      0.1129952149E+01
          0                 5           2             4    7     1       0.8571808423E-03       5    8    1         0.4623487776E-01      0.1130177807E+00
          0                 6           1             4    7     1      -0.5837084202E-04       5    8    1        -0.3236956138E-02      0.7912461732E-02

    ------------------------------------------------
       NWT REQUIRED            6 OUTER ITERATIONS 
       AND A TOTAL OF         11 INNER ITERATIONS.
    ------------------------------------------------

 NO OUTPUT CONTROL FOR STRESS PERIOD   20   TIME STEP   15
 
 SOLVING FOR HEAD 
                                                   Max.-Head-Change                         Max.-Flux-Residual
  Residual-Control   Outer-Iter.   Inner-Iter.     Column Row Layer    Maximum-Head-Change  Column Row Layer    Maximum-Flux-Residual          L2-NORM 
          0                 1           2             4    7     1      -0.1402237220E+00       4    7    1        -0.7364124258E+01      0.1574737234E+02
          0                 2           2             5    8     1      -0.5411803187E-02       5    8    1        -0.2988860368E+00      0.7455650226E+00
          0                 3           2             4    7     1      -0.1222164703E-01       4    7    1        -0.6385075412E+00      0.1531763859E+01
          0                 4           2             4    7     1      -0.8813863830E-02       5    8    1        -0.4623465726E+00      0.1130226835E+01
          0                 5           2             4    7     1       0.8573481989E-03       5    8    1         0.4624754387E-01      0.1130452286E+00
          0                 6           1             4    7     1      -0.5838223866E-04       5    8    1        -0.3237841863E-02      0.7914380463E-02

    ------------------------------------------------
       NWT REQUIRED            6 OUTER ITERATIONS 
       AND A TOTAL OF         11 INNER ITERATIONS.
    ------------------------------------------------

 NO OUTPUT CONTROL FOR STRESS PERIOD   20   TIME STEP   16
 
 SOLVING FOR HEAD 
                                                   Max.-Head-Change                         Max.-Flux-Residual
  Residual-Control   Outer-Iter.   Inner-Iter.     Column Row Layer    Maximum-Head-Change  Column Row Layer    Maximum-Flux-Residual          L2-NORM 
          0                 1           2             4    7     1      -0.1385313588E+00       4    7    1        -0.7276347912E+01      0.1554920133E+02
          0                 2           2             5    8     1      -0.5636660733E-02       5    8    1        -0.3111043704E+00      0.7744131383E+00
          0                 3           2             4    7     1      -0.1220476150E-01       4    7    1        -0.6376305342E+00      0.1529115164E+01
          0                 4           2             4    7     1      -0.8815587585E-02       5    8    1        -0.4624678377E+00      0.1130493792E+01
          0                 5           2             4    7     1       0.8575158733E-03       5    8    1         0.4625964928E-01      0.1130719045E+00
          0                 6           1             4    7     1      -0.5839365649E-04       5    8    1        -0.3238688422E-02      0.7916245684E-02

    ------------------------------------------------
       NWT REQUIRED            6 OUTER ITERATIONS 
       AND A TOTAL OF         11 INNER ITERATIONS.
    ------------------------------------------------

 NO OUTPUT CONTROL FOR STRESS PERIOD   20   TIME STEP   17
 
 SOLVING FOR HEAD 
                                                   Max.-Head-Change                         Max.-Flux-Residual
  Residual-Control   Outer-Iter.   Inner-Iter.     Column Row Layer    Maximum-Head-Change  Column Row Layer    Maximum-Flux-Residual          L2-NORM 
          0                 1           2             4    7     1      -0.1368382484E+00       4    7    1        -0.7188417167E+01      0.1535837834E+02
          0                 2           2             5    8     1      -0.5851859931E-02       5    8    1        -0.3227880580E+00      0.8022743845E+00
          0                 3           2             4    7     1      -0.1218786886E-01       4    7    1        -0.6367519677E+00      0.1526540158E+01
          0                 4           2             4    7     1      -0.8817312332E-02       5    8    1        -0.4625838175E+00      0.1130753322E+01
          0                 5           2             4    7     1       0.8576836444E-03       5    8    1         0.4627122746E-01      0.1130978385E+00
          0                 6           1             4    7     1      -0.5840508142E-04       5    8    1        -0.3239498101E-02      0.7918058944E-02

    ------------------------------------------------
       NWT REQUIRED            6 OUTER ITERATIONS 
       AND A TOTAL OF         11 INNER ITERATIONS.
    ------------------------------------------------

 NO OUTPUT CONTROL FOR STRESS PERIOD   20   TIME STEP   18
 
 SOLVING FOR HEAD 
                                                   Max.-Head-Change                         Max.-Flux-Residual
  Residual-Control   Outer-Iter.   Inner-Iter.     Column Row Layer    Maximum-Head-Change  Column Row Layer    Maximum-Flux-Residual          L2-NORM 
          0                 1           2             4    7     1      -0.1351463092E+00       4    7    1        -0.7100440625E+01      0.1517448774E+02
          0                 2           2             5    8     1      -0.6057991320E-02       5    8    1        -0.3339701444E+00      0.8291952332E+00
          0                 3           2             4    7     1      -0.1217098826E-01       4    7    1        -0.6358729272E+00      0.1524035750E+01
          0                 4           2             4    7     1      -0.8819036114E-02       5    8    1        -0.4626948380E+00      0.1131005731E+01
          0                 5           2             4    7     1       0.8578513215E-03       5    8    1         0.4628231095E-01      0.1131230611E+00
          0                 6           1             4    7     1      -0.5841649913E-04       5    8    1        -0.3240273188E-02      0.7919822554E-02

    ------------------------------------------------
       NWT REQUIRED            6 OUTER ITERATIONS 
       AND A TOTAL OF         11 INNER ITERATIONS.
    ------------------------------------------------

 NO OUTPUT CONTROL FOR STRESS PERIOD   20   TIME STEP   19
 
 SOLVING FOR HEAD 
                                                   Max.-Head-Change                         Max.-Flux-Residual
  Residual-Control   Outer-Iter.   Inner-Iter.     Column Row Layer    Maximum-Head-Change  Column Row Layer    Maximum-Flux-Residual          L2-NORM 
          0                 1           2             4    7     1      -0.1334576997E+00       4    7    1        -0.7012539601E+01      0.1499715861E+02
          0                 2           2             5    8     1      -0.6255602974E-02       5    8    1        -0.3446812491E+00      0.8552195193E+00
          0                 3           2             4    7     1      -0.1215414121E-01       4    7    1        -0.6349946260E+00      0.1521599154E+01
          0                 4           2             4    7     1      -0.8820756730E-02       5    8    1        -0.4628012019E+00      0.1131251295E+01
          0                 5           2             4    7     1       0.8580186905E-03       5    8    1         0.4629292995E-01      0.1131475999E+00
          0                 6           1             4    7     1      -0.5842789672E-04       5    8    1        -0.3241015845E-02      0.7921538434E-02

    ------------------------------------------------
       NWT REQUIRED            6 OUTER ITERATIONS 
       AND A TOTAL OF         11 INNER ITERATIONS.
    ------------------------------------------------

 NO OUTPUT CONTROL FOR STRESS PERIOD   20   TIME STEP   20
 
 SOLVING FOR HEAD 
                                                   Max.-Head-Change                         Max.-Flux-Residual
  Residual-Control   Outer-Iter.   Inner-Iter.     Column Row Layer    Maximum-Head-Change  Column Row Layer    Maximum-Flux-Residual          L2-NORM 
          0                 1           2             4    7     1      -0.1317738816E+00       4    7    1        -0.6924796868E+01      0.1482603469E+02
          0                 2           2             5    8     1      -0.6445202383E-02       5    8    1        -0.3549497902E+00      0.8803893266E+00
          0                 3           2             4    7     1      -0.1213734229E-01       4    7    1        -0.6341178917E+00      0.1519227620E+01
          0                 4           2             4    7     1      -0.8822472688E-02       5    8    1        -0.4629031895E+00      0.1131490288E+01
          0                 5           2             4    7     1       0.8581856063E-03       5    8    1         0.4630311240E-01      0.1131714822E+00
          0                 6           1             4    7     1      -0.5843926296E-04       5    8    1        -0.3241727997E-02      0.7923208443E-02

    ------------------------------------------------
       NWT REQUIRED            6 OUTER ITERATIONS 
       AND A TOTAL OF         11 INNER ITERATIONS.
    ------------------------------------------------

 NO OUTPUT CONTROL FOR STRESS PERIOD   20   TIME STEP   21
 
 SOLVING FOR HEAD 
                                                   Max.-Head-Change                         Max.-Flux-Residual
  Residual-Control   Outer-Iter.   Inner-Iter.     Column Row Layer    Maximum-Head-Change  Column Row Layer    Maximum-Flux-Residual          L2-NORM 
          0                 1           2             4    7     1      -0.1300965693E+00       4    7    1        -0.6837310060E+01      0.1466078557E+02
          0                 2           2             5    8     1      -0.6627233521E-02       5    8    1        -0.3648005191E+00      0.9047439649E+00
          0                 3           2             4    7     1      -0.1212060860E-01       4    7    1        -0.6332437003E+00      0.1516918574E+01
          0                 4           2             4    7     1      -0.8824182238E-02       5    8    1        -0.4630010454E+00      0.1131722966E+01
          0                 5           2             4    7     1       0.8583518991E-03       5    8    1         0.4631288267E-01      0.1131947339E+00
          0                 6           1             4    7     1      -0.5845058683E-04       5    8    1        -0.3242411285E-02      0.7924834422E-02

    ------------------------------------------------
       NWT REQUIRED            6 OUTER ITERATIONS 
       AND A TOTAL OF         11 INNER ITERATIONS.
    ------------------------------------------------

 NO OUTPUT CONTROL FOR STRESS PERIOD   20   TIME STEP   22
 
 SOLVING FOR HEAD 
                                                   Max.-Head-Change                         Max.-Flux-Residual
  Residual-Control   Outer-Iter.   Inner-Iter.     Column Row Layer    Maximum-Head-Change  Column Row Layer    Maximum-Flux-Residual          L2-NORM 
          0                 1           2             4    7     1      -0.1284272065E+00       4    7    1        -0.6750160773E+01      0.1450111909E+02
          0                 2           2             5    8     1      -0.6802164544E-02       5    8    1        -0.3742595821E+00      0.9283227734E+00
          0                 3           2             4    7     1      -0.1210395452E-01       4    7    1        -0.6323728679E+00      0.1514669600E+01
          0                 4           2             4    7     1      -0.8825883908E-02       5    8    1        -0.4630950279E+00      0.1131949572E+01
          0                 5           2             4    7     1       0.8585174251E-03       5    8    1         0.4632226653E-01      0.1132173789E+00
          0                 6           1             4    7     1      -0.5846185827E-04       5    8    1        -0.3243067585E-02      0.7926418001E-02

    ------------------------------------------------
       NWT REQUIRED            6 OUTER ITERATIONS 
       AND A TOTAL OF         11 INNER ITERATIONS.
    ------------------------------------------------

 NO OUTPUT CONTROL FOR STRESS PERIOD   20   TIME STEP   23
 
 SOLVING FOR HEAD 
                                                   Max.-Head-Change                         Max.-Flux-Residual
  Residual-Control   Outer-Iter.   Inner-Iter.     Column Row Layer    Maximum-Head-Change  Column Row Layer    Maximum-Flux-Residual          L2-NORM 
          0                 1           2             4    7     1      -0.1267671067E+00       4    7    1        -0.6663423858E+01      0.1434674490E+02
          0                 2           2             5    8     1      -0.6970388497E-02       5    8    1        -0.3833489095E+00      0.9511598919E+00
          0                 3           2             4    7     1      -0.1208739317E-01       4    7    1        -0.6315061429E+00      0.1512478398E+01
          0                 4           2             4    7     1      -0.8827576356E-02       5    8    1        -0.4631853536E+00      0.1132170335E+01
          0                 5           2             4    7     1       0.8586820542E-03       5    8    1         0.4633128558E-01      0.1132394403E+00
          0                 6           1             4    7     1      -0.5847306925E-04       5    8    1        -0.3243698394E-02      0.7927960771E-02

    ------------------------------------------------
       NWT REQUIRED            6 OUTER ITERATIONS 
       AND A TOTAL OF         11 INNER ITERATIONS.
    ------------------------------------------------

 NO OUTPUT CONTROL FOR STRESS PERIOD   20   TIME STEP   24
 
 SOLVING FOR HEAD 
                                                   Max.-Head-Change                         Max.-Flux-Residual
  Residual-Control   Outer-Iter.   Inner-Iter.     Column Row Layer    Maximum-Head-Change  Column Row Layer    Maximum-Flux-Residual          L2-NORM 
          0                 1           2             4    7     1      -0.1251174602E+00       4    7    1        -0.6577167416E+01      0.1419741325E+02
          0                 2           2             5    8     1      -0.7132284576E-02       5    8    1        -0.3920896630E+00      0.9732911785E+00
          0                 3           2             4    7     1      -0.1207093639E-01       4    7    1        -0.6306442063E+00      0.1510342783E+01
          0                 4           2             4    7     1      -0.8829258366E-02       5    8    1        -0.4632722313E+00      0.1132385477E+01
          0                 5           2             4    7     1       0.8588456674E-03       5    8    1         0.4633996066E-01      0.1132609401E+00
          0                 6           1             4    7     1      -0.5848421064E-04       5    8    1        -0.3244305140E-02      0.7929465526E-02

    ------------------------------------------------
       NWT REQUIRED            6 OUTER ITERATIONS 
       AND A TOTAL OF         11 INNER ITERATIONS.
    ------------------------------------------------

 NO OUTPUT CONTROL FOR STRESS PERIOD   20   TIME STEP   25
 
 SOLVING FOR HEAD 
                                                   Max.-Head-Change                         Max.-Flux-Residual
  Residual-Control   Outer-Iter.   Inner-Iter.     Column Row Layer    Maximum-Head-Change  Column Row Layer    Maximum-Flux-Residual          L2-NORM 
          0                 1           2             4    7     1      -0.1234794792E+00       4    7    1        -0.6491460421E+01      0.1405287862E+02
          0                 2           2             5    8     1      -0.7288205915E-02       5    8    1        -0.4005015045E+00      0.9947477906E+00
          0                 3           2             4    7     1      -0.1205459629E-01       4    7    1        -0.6297877481E+00      0.1508260703E+01
          0                 4           2             4    7     1      -0.8830928700E-02       5    8    1        -0.4633558556E+00      0.1132595203E+01
          0                 5           2             4    7     1       0.8590081454E-03       5    8    1         0.4634831116E-01      0.1132818988E+00
          0                 6           1             4    7     1      -0.5849527477E-04       5    8    1        -0.3244889199E-02      0.7930930096E-02

    ------------------------------------------------
       NWT REQUIRED            6 OUTER ITERATIONS 
       AND A TOTAL OF         11 INNER ITERATIONS.
    ------------------------------------------------

 NO OUTPUT CONTROL FOR STRESS PERIOD   20   TIME STEP   26
 
 SOLVING FOR HEAD 
                                                   Max.-Head-Change                         Max.-Flux-Residual
  Residual-Control   Outer-Iter.   Inner-Iter.     Column Row Layer    Maximum-Head-Change  Column Row Layer    Maximum-Flux-Residual          L2-NORM 
          0                 1           2             4    7     1      -0.1218541295E+00       4    7    1        -0.6406358448E+01      0.1391292197E+02
          0                 2           2             5    8     1      -0.7438481265E-02       5    8    1        -0.4086027448E+00      0.1015560826E+01
          0                 3           2             4    7     1      -0.1203838249E-01       4    7    1        -0.6289373239E+00      0.1506230204E+01
          0                 4           2             4    7     1      -0.8832586370E-02       5    8    1        -0.4634364071E+00      0.1132799710E+01
          0                 5           2             4    7     1       0.8591693911E-03       5    8    1         0.4635635507E-01      0.1133023362E+00
          0                 6           1             4    7     1      -0.5850625475E-04       5    8    1        -0.3245451823E-02      0.7932359538E-02

    ------------------------------------------------
       NWT REQUIRED            6 OUTER ITERATIONS 
       AND A TOTAL OF         11 INNER ITERATIONS.
    ------------------------------------------------

 NO OUTPUT CONTROL FOR STRESS PERIOD   20   TIME STEP   27
 
 SOLVING FOR HEAD 
                                                   Max.-Head-Change                         Max.-Flux-Residual
  Residual-Control   Outer-Iter.   Inner-Iter.     Column Row Layer    Maximum-Head-Change  Column Row Layer    Maximum-Flux-Residual          L2-NORM 
          0                 1           2             4    7     1      -0.1202421438E+00       4    7    1        -0.6321904303E+01      0.1377732317E+02
          0                 2           2             5    8     1      -0.7583416767E-02       5    8    1        -0.4164104304E+00      0.1035758853E+01
          0                 3           2             4    7     1      -0.1202230228E-01       4    7    1        -0.6280933618E+00      0.1504249350E+01
          0                 4           2             4    7     1      -0.8834230627E-02       5    8    1        -0.4635140544E+00      0.1132999193E+01
          0                 5           2             4    7     1       0.8593293326E-03       5    8    1         0.4636410927E-01      0.1133222718E+00
          0                 6           1             4    7     1      -0.5851714622E-04       5    8    1        -0.3245994192E-02      0.7933753752E-02

    ------------------------------------------------
       NWT REQUIRED            6 OUTER ITERATIONS 
       AND A TOTAL OF         11 INNER ITERATIONS.
    ------------------------------------------------

 NO OUTPUT CONTROL FOR STRESS PERIOD   20   TIME STEP   28
 
 SOLVING FOR HEAD 
                                                   Max.-Head-Change                         Max.-Flux-Residual
  Residual-Control   Outer-Iter.   Inner-Iter.     Column Row Layer    Maximum-Head-Change  Column Row Layer    Maximum-Flux-Residual          L2-NORM 
          0                 1           2             4    7     1      -0.1186444358E+00       4    7    1        -0.6238150503E+01      0.1364588027E+02
          0                 2           2             5    8     1      -0.7723326083E-02       5    8    1        -0.4239419957E+00      0.1055369372E+01
          0                 3           2             4    7     1      -0.1200636478E-01       4    7    1        -0.6272563873E+00      0.1502316308E+01
          0                 4           2             4    7     1      -0.8835860535E-02       5    8    1        -0.4635889697E+00      0.1133193838E+01
          0                 5           2             4    7     1       0.8594878782E-03       5    8    1         0.4637159091E-01      0.1133417241E+00
          0                 6           1             4    7     1      -0.5852794325E-04       5    8    1        -0.3246517517E-02      0.7935114241E-02

    ------------------------------------------------
       NWT REQUIRED            6 OUTER ITERATIONS 
       AND A TOTAL OF         11 INNER ITERATIONS.
    ------------------------------------------------

 NO OUTPUT CONTROL FOR STRESS PERIOD   20   TIME STEP   29
 
 SOLVING FOR HEAD 
                                                   Max.-Head-Change                         Max.-Flux-Residual
  Residual-Control   Outer-Iter.   Inner-Iter.     Column Row Layer    Maximum-Head-Change  Column Row Layer    Maximum-Flux-Residual          L2-NORM 
          0                 1           2             4    7     1      -0.1170618931E+00       4    7    1        -0.6155144408E+01      0.1353616506E+02
          0                 2           2             5    8     1      -0.7858024895E-02       5    8    1        -0.4312097981E+00      0.1076593230E+01
          0                 3           2             4    7     1      -0.1199057884E-01       4    7    1        -0.6264268742E+00      0.1500462031E+01
          0                 4           2             4    7     1      -0.8837475190E-02       5    8    1        -0.4636611174E+00      0.1133383670E+01
          0                 5           2             4    7     1       0.8596449396E-03       5    8    1         0.4637879260E-01      0.1133606868E+00
          0                 6           1             4    7     1      -0.5853863804E-04       5    8    1        -0.3247021120E-02      0.7936440295E-02

    ------------------------------------------------
       NWT REQUIRED            6 OUTER ITERATIONS 
       AND A TOTAL OF         11 INNER ITERATIONS.
    ------------------------------------------------

 NO OUTPUT CONTROL FOR STRESS PERIOD   20   TIME STEP   30



 STREAM LISTING     PERIOD     20   STEP       30

 LAYER ROW COL. STREAM  RCH.  FLOW INTO     FLOW TO   FLOW OUT OF   OVRLND.     DIRECT     STREAM       STREAM     STREAM     STREAM   STREAMBED  STREAMBED
                SEG.NO.  NO.  STRM. RCH.    AQUIFER    STRM. RCH.    RUNOFF     PRECIP       ET          HEAD       DEPTH      WIDTH   CONDCTNC.   GRADIENT

   1    1    1     1     1    4.3035E+01  3.1412E-01   4.2721E+01  0.000E+00  0.000E+00  0.000E+00  1.09440E+03  1.353E+00  1.604E+01  7.216E-02  1.451E+00
   1    2    2     1     2    4.2721E+01  4.8658E-01   4.2235E+01  0.000E+00  0.000E+00  0.000E+00  1.08941E+03  1.350E+00  1.598E+01  1.118E-01  1.450E+00
   1    3    3     1     3    4.2235E+01  4.1507E-01   4.1819E+01  0.000E+00  0.000E+00  0.000E+00  1.08377E+03  1.347E+00  1.591E+01  9.548E-02  1.449E+00
   1    3    4     1     4    4.1819E+01  3.8230E-01   4.1437E+01  0.000E+00  0.000E+00  0.000E+00  1.07875E+03  1.344E+00  1.586E+01  8.800E-02  1.448E+00
   1    4    5     2     1    3.9437E+01  3.5748E-01   3.9080E+01  0.000E+00  0.000E+00  0.000E+00  1.07352E+03  1.583E+00  1.200E+01  7.800E-02  1.528E+00
   1    5    6     2     2    3.9080E+01  2.7453E-01   3.8805E+01  0.000E+00  0.000E+00  0.000E+00  1.06808E+03  1.575E+00  1.200E+01  6.000E-02  1.525E+00
   1    6    6     2     3    3.8805E+01  2.7413E-01   3.8531E+01  0.000E+00  0.000E+00  0.000E+00  1.06336E+03  1.569E+00  1.200E+01  6.000E-02  1.523E+00
   1    7    6     2     4    3.8531E+01  2.7372E-01   3.8257E+01  0.000E+00  0.000E+00  0.000E+00  1.05864E+03  1.562E+00  1.200E+01  6.000E-02  1.521E+00
   1    8    6     2     5    3.8257E+01  2.7332E-01   3.7984E+01  0.000E+00  0.000E+00  0.000E+00  1.05391E+03  1.555E+00  1.200E+01  6.000E-02  1.518E+00
   1    3    5     3     1    2.0000E+00  2.8252E-01   1.7175E+00  0.000E+00  0.000E+00  0.000E+00  1.07555E+03  1.909E+00  9.636E+00  7.227E-02  1.955E+00
   1    3    6     3     2    1.7175E+00  2.4905E-01   1.4684E+00  0.000E+00  0.000E+00  0.000E+00  1.07264E+03  1.727E+00  8.909E+00  6.682E-02  1.864E+00
   1    3    7     3     3    1.4684E+00  1.9718E-01   1.2712E+00  0.000E+00  0.000E+00  0.000E+00  1.06987E+03  1.555E+00  8.218E+00  5.547E-02  1.777E+00
   1    4    8     3     4    1.2712E+00  2.2567E-01   1.0456E+00  0.000E+00  0.000E+00  0.000E+00  1.06682E+03  1.364E+00  7.455E+00  6.709E-02  1.682E+00
   1    5    8     3     5    1.0456E+00  1.5790E-01   8.8768E-01  0.000E+00  0.000E+00  0.000E+00  1.06362E+03  1.164E+00  6.655E+00  4.991E-02  1.582E+00
   1    6    8     3     6    8.8768E-01  5.5980E-02   8.3170E-01  0.000E+00  0.000E+00  0.000E+00  1.06158E+03  1.036E+00  6.145E+00  1.844E-02  1.518E+00
   1    5   10     4     1    1.0000E+01  9.0919E-02   9.9091E+00  0.000E+00  0.000E+00  0.000E+00  1.07836E+03  6.368E-01  1.000E+01  2.500E-02  1.212E+00
   1    5    9     4     2    9.9091E+00  1.8158E-01   9.7275E+00  0.000E+00  0.000E+00  0.000E+00  1.07154E+03  6.315E-01  1.000E+01  5.000E-02  1.211E+00
   1    6    8     4     3    9.7275E+00  1.2689E-01   9.6006E+00  0.000E+00  0.000E+00  0.000E+00  1.06381E+03  6.256E-01  1.000E+01  3.500E-02  1.209E+00
   1    6    8     5     1    1.0432E+01  2.2686E-01   1.0205E+01  0.000E+00  0.000E+00  0.000E+00  1.05868E+03  6.790E-01  1.542E+01  6.166E-02  1.226E+00
   1    7    7     5     2    1.0205E+01  2.7894E-01   9.9265E+00  0.000E+00  0.000E+00  0.000E+00  1.05417E+03  6.732E-01  1.519E+01  7.594E-02  1.224E+00
   1    8    7     5     3    9.9265E+00  1.9221E-01   9.7343E+00  0.000E+00  0.000E+00  0.000E+00  1.04992E+03  6.676E-01  1.497E+01  5.241E-02  1.223E+00
   1    8    6     5     4    9.7343E+00  1.3577E-01   9.5985E+00  0.000E+00  0.000E+00  0.000E+00  1.04691E+03  6.637E-01  1.482E+01  3.706E-02  1.221E+00
   1    9    6     6     1    4.7583E+01  2.8760E-01   4.7295E+01  0.000E+00  0.000E+00  0.000E+00  1.04452E+03  1.793E+00  1.200E+01  6.000E-02  1.598E+00
   1   10    7     6     2    4.7295E+01  2.8721E-01   4.7008E+01  0.000E+00  0.000E+00  0.000E+00  1.03997E+03  1.787E+00  1.200E+01  6.000E-02  1.596E+00
   1   11    7     6     3    4.7008E+01  2.8681E-01   4.6721E+01  0.000E+00  0.000E+00  0.000E+00  1.03542E+03  1.780E+00  1.200E+01  6.000E-02  1.593E+00
   1   12    7     6     4    4.6721E+01  2.8642E-01   4.6434E+01  0.000E+00  0.000E+00  0.000E+00  1.03086E+03  1.774E+00  1.200E+01  6.000E-02  1.591E+00
   1   13    7     6     5    4.6434E+01  1.4310E-02   4.6420E+01  0.000E+00  0.000E+00  0.000E+00  1.02768E+03  1.770E+00  1.200E+01  2.400E-02  1.987E-01
   1   14    9     7     1    1.5000E+02  1.3326E+00   1.4867E+02  0.000E+00  0.000E+00  0.000E+00  1.03987E+03  2.288E+00  5.529E+01  5.593E-01  7.942E-01
   1   13    8     7     2    1.4867E+02  1.8303E+00   1.4684E+02  0.000E+00  0.000E+00  0.000E+00  1.03478E+03  2.279E+00  5.526E+01  6.148E-01  9.924E-01
   1   13    7     7     3    1.4684E+02  1.4558E+00   1.4538E+02  0.000E+00  0.000E+00  0.000E+00  1.02969E+03  2.271E+00  5.522E+01  5.585E-01  8.689E-01
   1   13    6     8     1    1.9180E+02  9.8950E-01   1.9081E+02  0.000E+00  0.000E+00  0.000E+00  1.02496E+03  3.086E+00  4.475E+01  4.560E-01  7.234E-01
   1   13    5     8     2    1.9081E+02  2.0984E-01   1.9060E+02  0.000E+00  0.000E+00  0.000E+00  1.01871E+03  3.082E+00  4.469E+01  4.554E-01  1.536E-01
   1   13    4     8     3    1.9060E+02 -2.4476E+00   1.9305E+02  0.000E+00  0.000E+00  0.000E+00  1.01246E+03  3.089E+00  4.479E+01  4.564E+00 -1.787E-01
   1   13    3     8     4    1.9305E+02 -3.5769E+00   1.9663E+02  0.000E+00  0.000E+00  0.000E+00  1.00623E+03  3.107E+00  4.505E+01  4.591E+00 -2.597E-01
   1   13    2     8     5    1.9663E+02 -2.7400E+00   1.9937E+02  0.000E+00  0.000E+00  0.000E+00  1.00000E+03  3.126E+00  4.533E+01  4.619E+00 -1.977E-01
   1   13    1     8     6    1.9937E+02 -2.1018E+00   2.0147E+02  0.000E+00  0.000E+00  0.000E+00  9.95015E+02  3.140E+00  4.553E+01  2.784E+00 -2.517E-01





UNSATURATED ZONE PACKAGE VOLUMETRIC BUDGET FOR  TIME STEP    30 STRESS PERIOD   20
  ------------------------------------------------------------------------------



     CUMULATIVE VOLUMES      L**3       RATES FOR THIS TIME STEP      L**3/T
     ------------------                 ------------------------

           IN:                                      IN:
           ---                                      ---
        INFILTRATION =   754865215.4390          INFILTRATION =          72.6628

          OUT:                                     OUT:
          ----                                     ----
              UZF ET =   678937631.1315                UZF ET =          58.2420
        UZF RECHARGE =    37930890.8416          UZF RECHARGE =       0.0000E+00

            IN - OUT =    37996693.4660              IN - OUT =          14.4207

          STORAGE:                                 STORAGE:
          --------                                 --------
      STORAGE CHANGE =    37996697.3574        STORAGE CHANGE =          14.4207

 PERCENT DISCREPANCY IS DIFFERENCE BETWEEN IN-OUT MINUS CHANGE IN STORAGE
 DIVIDED BY THE AVERAGE OF IN AND OUT TIMES 100

 PERCENT DISCREPANCY =           0.00     PERCENT DISCREPANCY =           0.00






1
  VOLUMETRIC BUDGET FOR AGRICULTURAL FIELDS AT  END OF TIME STEP   30, STRESS PERIOD  20
  ------------------------------------------------------------------------------

     CUMULATIVE VOLUMES      L**3       RATES FOR THIS TIME STEP      L**3/T
     ------------------                 ------------------------

           IN:                                      IN:
           ---                                      ---
               AG WELLS  =   712441728.0000                 AG WELLS  =          71.8153
      DIVERSION SEGMENTS =           0.0000        DIVERSION SEGMENTS =           0.0000
           GW IRRIGATION =           0.0000             GW IRRIGATION =           0.0000
           SW IRRIGATION =           0.0000             SW IRRIGATION =           0.0000
        SYSTEM LOSSES GW =           0.0000          SYSTEM LOSSES GW =           0.0000
        SYSTEM LOSSES SW =           0.0000          SYSTEM LOSSES SW =           0.0000

                TOTAL IN =   712441728.0000                  TOTAL IN =          71.8153

          OUT:                                     OUT:
          ----                                     ----
               AG WELLS  =           0.0000                 AG WELLS  =           0.0000
      DIVERSION SEGMENTS =           0.0000        DIVERSION SEGMENTS =           0.0000
           GW IRRIGATION =   712441728.0000             GW IRRIGATION =          71.8153
           SW IRRIGATION =           0.0000             SW IRRIGATION =           0.0000
        SYSTEM LOSSES GW =           0.0000          SYSTEM LOSSES GW =           0.0000
        SYSTEM LOSSES SW =           0.0000          SYSTEM LOSSES SW =           0.0000

               TOTAL OUT =   712441728.0000                 TOTAL OUT =          71.8153

                IN - OUT =           0.0000                  IN - OUT =           0.0000

     PERCENT DISCREPANCY =           0.00         PERCENT DISCREPANCY =           0.00



1
  VOLUMETRIC BUDGET FOR ENTIRE MODEL AT END OF TIME STEP   30, STRESS PERIOD  20
  ------------------------------------------------------------------------------

     CUMULATIVE VOLUMES      L**3       RATES FOR THIS TIME STEP      L**3/T
     ------------------                 ------------------------

           IN:                                      IN:
           ---                                      ---
             STORAGE     =   861554560.0000               STORAGE     =          70.7724
       CONSTANT HEAD     =           0.0000         CONSTANT HEAD     =           0.0000
     HEAD DEP BOUNDS     =    14287080.0000       HEAD DEP BOUNDS     =           0.2855
      STREAM LEAKAGE     =   629693376.0000        STREAM LEAKAGE     =          12.4332
        UZF RECHARGE     =    37930912.0000          UZF RECHARGE     =           0.0000
               GW ET     =           0.0000                 GW ET     =           0.0000
     SURFACE LEAKAGE     =           0.0000       SURFACE LEAKAGE     =           0.0000
           AG WELLS      =           0.0000             AG WELLS      =           0.0000

                TOTAL IN =  1543465856.0000                  TOTAL IN =          83.4911

          OUT:                                     OUT:
          ----                                     ----
             STORAGE     =   283280864.0000               STORAGE     =           0.2846
       CONSTANT HEAD     =           0.0000         CONSTANT HEAD     =           0.0000
     HEAD DEP BOUNDS     =    14756329.0000       HEAD DEP BOUNDS     =           0.2953
      STREAM LEAKAGE     =   515417920.0000        STREAM LEAKAGE     =          10.8663
        UZF RECHARGE     =           0.0000          UZF RECHARGE     =           0.0000
               GW ET     =    17565746.0000                 GW ET     =           0.2288
     SURFACE LEAKAGE     =           0.0000       SURFACE LEAKAGE     =           0.0000
           AG WELLS      =   712441728.0000             AG WELLS      =          71.8153

               TOTAL OUT =  1543462656.0000                 TOTAL OUT =          83.4904

                IN - OUT =        3200.0000                  IN - OUT =       7.8583E-04

     PERCENT DISCREPANCY =           0.00         PERCENT DISCREPANCY =           0.00






         TIME SUMMARY AT END OF TIME STEP   30 IN STRESS PERIOD   20
                    SECONDS     MINUTES      HOURS       DAYS        YEARS
                    -----------------------------------------------------------
   TIME STEP LENGTH  87667.      1461.1      24.352      1.0147     2.77799E-03
 STRESS PERIOD TIME 2.63000E+06  43833.      730.56      30.440     8.33397E-02
         TOTAL TIME 5.00565E+07 8.34276E+05  13905.      579.36      1.5862    
1
1
                            STRESS PERIOD NO.   21, LENGTH =   2630000.    
                            -----------------------------------------------

                              NUMBER OF TIME STEPS =    30

                               MULTIPLIER FOR DELT =     1.000

                            INITIAL TIME STEP SIZE =   87666.66    

 REUSING NON-PARAMETER GHB CELLS FROM LAST STRESS PERIOD

      2 GHB CELLS

 REUSING STREAM SEGMENT DATA FROM LAST STRESS PERIOD



            AREAL INFILTRATION RATE
 READING ON UNIT   19 WITH FORMAT: (FREE)              

            1           2           3           4           5           6           7           8           9          10
 ........................................................................................................................
   1   1.0000E-10  2.0000E-10   0.000       0.000       0.000       0.000       0.000       0.000       0.000       0.000    
   2   2.0000E-10  1.0000E-10  2.0000E-10   0.000       0.000      8.0000E-10  8.0000E-10  5.0000E-10   0.000       0.000    
   3    0.000      5.0000E-10  1.0000E-10  1.0000E-10  8.0000E-10  8.0000E-10  5.0000E-10  5.0000E-10   0.000       0.000    
   4   8.0000E-10  5.0000E-10  1.0000E-10  1.0000E-10  1.0000E-10  1.0000E-10  1.0000E-10  1.0000E-10  2.0000E-10   0.000    
   5   8.0000E-10  5.0000E-10  1.0000E-10  1.0000E-10  1.0000E-10  1.0000E-10  1.0000E-10  1.0000E-10  1.0000E-10  1.0000E-10
   6   8.0000E-10  5.0000E-10  5.0000E-10  2.0000E-10  2.0000E-10  1.0000E-10  1.0000E-10  1.0000E-10  1.0000E-10  5.0000E-10
   7   8.0000E-10  5.0000E-10  5.0000E-10  2.0000E-10  2.0000E-10  1.0000E-10  1.0000E-10  2.0000E-10  2.0000E-10   0.000    
   8    0.000      5.0000E-10  5.0000E-10  2.0000E-10  2.0000E-10  1.0000E-10  1.0000E-10  2.0000E-10  5.0000E-10   0.000    
   9    0.000      5.0000E-10  5.0000E-10  2.0000E-10  2.0000E-10  1.0000E-10  1.0000E-10  2.0000E-10  5.0000E-10   0.000    
  10    0.000      5.0000E-10  5.0000E-10  2.0000E-10  2.0000E-10  1.0000E-10  1.0000E-10  2.0000E-10  5.0000E-10  8.0000E-10
  11    0.000      1.0000E-10  1.0000E-10  1.0000E-10  1.0000E-10  1.0000E-10  1.0000E-10  2.0000E-10  5.0000E-10   0.000    
  12   1.0000E-10  1.0000E-10  1.0000E-10  1.0000E-10  1.0000E-10  1.0000E-10  1.0000E-10  1.0000E-10  2.0000E-10   0.000    
  13   1.0000E-10  1.0000E-10  2.0000E-10  2.0000E-10  2.0000E-10  2.0000E-10  2.0000E-10  1.0000E-10  1.0000E-10   0.000    
  14    0.000      2.0000E-10  5.0000E-10  5.0000E-10  5.0000E-10  5.0000E-10  5.0000E-10  2.0000E-10  1.0000E-10   0.000    
  15    0.000       0.000      8.0000E-10  8.0000E-10  8.0000E-10  8.0000E-10   0.000       0.000       0.000       0.000    

                  ET RATE =  3.250000E-07

 USING ET EXTINCTION DEPTH FROM PREVIOUS STRESS PERIOD. CURRENT PERIOD IS:      21

 USING EXTINCTION WATER CONTENT FROM PREVIOUS STRESS PERIOD. CURRENT PERIOD IS:      21

 USING AIR ENTRY PRESSURE FROM PREVIOUS STRESS PERIOD. CURRENT PERIOD IS:      21

 USING ROOT PRESSURE HEAD FROM PREVIOUS STRESS PERIOD. CURRENT PERIOD IS:      21

 USING ROOT ACTIVITY FROM PREVIOUS STRESS PERIOD. CURRENT PERIOD IS:      21

 PROCESSING AG STRESS PERIOD DATA

 READING AG STRESS PERIOD DATA

 READING IRRIGATION WELL

 END PROCESSING AG STRESS PERIOD DATA OPTIONS
 
 SOLVING FOR HEAD 
                                                   Max.-Head-Change                         Max.-Flux-Residual
  Residual-Control   Outer-Iter.   Inner-Iter.     Column Row Layer    Maximum-Head-Change  Column Row Layer    Maximum-Flux-Residual          L2-NORM 
          0                 1           2             4    7     1      -0.7957816087E-01       4    7    1        -0.4197910258E+01      0.9837742628E+01
          0                 2           2             4    7     1       0.7740612741E-02       4    7    1         0.4197792754E+00      0.9839240861E+00
          0                 3           2             4    7     1      -0.5271087173E-03       4    7    1        -0.2938467315E-01      0.6891449841E-01
          0                 4           1             4    7     1       0.2097414126E-04       4    7    1         0.1201834293E-02      0.2824658278E-02

    ------------------------------------------------
       NWT REQUIRED            4 OUTER ITERATIONS 
       AND A TOTAL OF          7 INNER ITERATIONS.
    ------------------------------------------------

 NO OUTPUT CONTROL FOR STRESS PERIOD   21   TIME STEP    1
 
 SOLVING FOR HEAD 
                                                   Max.-Head-Change                         Max.-Flux-Residual
  Residual-Control   Outer-Iter.   Inner-Iter.     Column Row Layer    Maximum-Head-Change  Column Row Layer    Maximum-Flux-Residual          L2-NORM 
          0                 1           2             4    7     1      -0.7840977490E-01       4    7    1        -0.4134686335E+01      0.9766581852E+01
          0                 2           2             4    7     1       0.7626968024E-02       4    7    1         0.4134573978E+00      0.9765892496E+00
          0                 3           2             4    7     1      -0.5193698604E-03       4    7    1        -0.2894213665E-01      0.6835571303E-01
          0                 4           1             4    7     1       0.2066620544E-04       4    7    1         0.1183734554E-02      0.2795346895E-02

    ------------------------------------------------
       NWT REQUIRED            4 OUTER ITERATIONS 
       AND A TOTAL OF          7 INNER ITERATIONS.
    ------------------------------------------------

 NO OUTPUT CONTROL FOR STRESS PERIOD   21   TIME STEP    2
 
 SOLVING FOR HEAD 
                                                   Max.-Head-Change                         Max.-Flux-Residual
  Residual-Control   Outer-Iter.   Inner-Iter.     Column Row Layer    Maximum-Head-Change  Column Row Layer    Maximum-Flux-Residual          L2-NORM 
          0                 1           2             4    7     1      -0.7728747403E-01       4    7    1        -0.4073973888E+01      0.9699838376E+01
          0                 2           2             4    7     1       0.7517805807E-02       4    7    1         0.4073866392E+00      0.9699271273E+00
          0                 3           2             4    7     1      -0.5119362490E-03       4    7    1        -0.2851717877E-01      0.6789042523E-01
          0                 4           1             4    7     1       0.2037041535E-04       4    7    1         0.1166353767E-02      0.2776411389E-02

    ------------------------------------------------
       NWT REQUIRED            4 OUTER ITERATIONS 
       AND A TOTAL OF          7 INNER ITERATIONS.
    ------------------------------------------------

 NO OUTPUT CONTROL FOR STRESS PERIOD   21   TIME STEP    3
 
 SOLVING FOR HEAD 
                                                   Max.-Head-Change                         Max.-Flux-Residual
  Residual-Control   Outer-Iter.   Inner-Iter.     Column Row Layer    Maximum-Head-Change  Column Row Layer    Maximum-Flux-Residual          L2-NORM 
          0                 1           2             4    7     1      -0.7620912799E-01       4    7    1        -0.4015658257E+01      0.9636850637E+01
          0                 2           2             4    7     1       0.7412867227E-02       4    7    1         0.4015555353E+00      0.9636106550E+00
          0                 3           2             4    7     1      -0.5047902550E-03       4    7    1        -0.2810899702E-01      0.6744917394E-01
          0                 4           1             4    7     1       0.2008606998E-04       4    7    1         0.1149659134E-02      0.2758464663E-02

    ------------------------------------------------
       NWT REQUIRED            4 OUTER ITERATIONS 
       AND A TOTAL OF          7 INNER ITERATIONS.
    ------------------------------------------------

 NO OUTPUT CONTROL FOR STRESS PERIOD   21   TIME STEP    4
 
 SOLVING FOR HEAD 
                                                   Max.-Head-Change                         Max.-Flux-Residual
  Residual-Control   Outer-Iter.   Inner-Iter.     Column Row Layer    Maximum-Head-Change  Column Row Layer    Maximum-Flux-Residual          L2-NORM 
          0                 1           2             4    7     1      -0.7517296462E-01       4    7    1        -0.3959631737E+01      0.9577140926E+01
          0                 2           2             4    7     1       0.7312134805E-02       4    7    1         0.3959533178E+00      0.9576739496E+00
          0                 3           2             4    7     1      -0.4979306883E-03       4    7    1        -0.2771683747E-01      0.6703415800E-01
          0                 4           1             4    7     1       0.1981312201E-04       4    7    1         0.1133619804E-02      0.2741521230E-02

    ------------------------------------------------
       NWT REQUIRED            4 OUTER ITERATIONS 
       AND A TOTAL OF          7 INNER ITERATIONS.
    ------------------------------------------------

 NO OUTPUT CONTROL FOR STRESS PERIOD   21   TIME STEP    5
 
 SOLVING FOR HEAD 
                                                   Max.-Head-Change                         Max.-Flux-Residual
  Residual-Control   Outer-Iter.   Inner-Iter.     Column Row Layer    Maximum-Head-Change  Column Row Layer    Maximum-Flux-Residual          L2-NORM 
          0                 1           2             4    7     1      -0.7417683117E-01       4    7    1        -0.3905794179E+01      0.9520344537E+01
          0                 2           2             4    7     1       0.7215244125E-02       4    7    1         0.3905699723E+00      0.9520002862E+00
          0                 3           2             4    7     1      -0.4913327339E-03       4    7    1        -0.2733999925E-01      0.6663751877E-01
          0                 4           1             4    7     1       0.1955058296E-04       4    7    1         0.1118207110E-02      0.2725380209E-02

    ------------------------------------------------
       NWT REQUIRED            4 OUTER ITERATIONS 
       AND A TOTAL OF          7 INNER ITERATIONS.
    ------------------------------------------------

 NO OUTPUT CONTROL FOR STRESS PERIOD   21   TIME STEP    6
 
 SOLVING FOR HEAD 
                                                   Max.-Head-Change                         Max.-Flux-Residual
  Residual-Control   Outer-Iter.   Inner-Iter.     Column Row Layer    Maximum-Head-Change  Column Row Layer    Maximum-Flux-Residual          L2-NORM 
          0                 1           2             4    7     1      -0.7321860688E-01       4    7    1        -0.3854027725E+01      0.9466084855E+01
          0                 2           2             4    7     1       0.7122040646E-02       4    7    1         0.3853937144E+00      0.9465789684E+00
          0                 3           2             4    7     1      -0.4849858675E-03       4    7    1        -0.2697765736E-01      0.6625846024E-01
          0                 4           1             4    7     1       0.1929803583E-04       4    7    1         0.1103387324E-02      0.2709846342E-02

    ------------------------------------------------
       NWT REQUIRED            4 OUTER ITERATIONS 
       AND A TOTAL OF          7 INNER ITERATIONS.
    ------------------------------------------------

 NO OUTPUT CONTROL FOR STRESS PERIOD   21   TIME STEP    7
 
 SOLVING FOR HEAD 
                                                   Max.-Head-Change                         Max.-Flux-Residual
  Residual-Control   Outer-Iter.   Inner-Iter.     Column Row Layer    Maximum-Head-Change  Column Row Layer    Maximum-Flux-Residual          L2-NORM 
          0                 1           2             4    7     1      -0.7229675167E-01       4    7    1        -0.3804248652E+01      0.9414101973E+01
          0                 2           2             4    7     1       0.7032374576E-02       4    7    1         0.3804161730E+00      0.9413844603E+00
          0                 3           2             4    7     1      -0.4788798887E-03       4    7    1        -0.2662922586E-01      0.6589519094E-01
          0                 4           1             4    7     1       0.1905507296E-04       4    7    1         0.1089136462E-02      0.2695006259E-02

    ------------------------------------------------
       NWT REQUIRED            4 OUTER ITERATIONS 
       AND A TOTAL OF          7 INNER ITERATIONS.
    ------------------------------------------------

 NO OUTPUT CONTROL FOR STRESS PERIOD   21   TIME STEP    8
 
 SOLVING FOR HEAD 
                                                   Max.-Head-Change                         Max.-Flux-Residual
  Residual-Control   Outer-Iter.   Inner-Iter.     Column Row Layer    Maximum-Head-Change  Column Row Layer    Maximum-Flux-Residual          L2-NORM 
          0                 1           2             4    7     1      -0.7140926342E-01       4    7    1        -0.3756348105E+01      0.9364167026E+01
          0                 2           2             4    7     1       0.6946051183E-02       4    7    1         0.3756264640E+00      0.9363940956E+00
          0                 3           2             4    7     1      -0.4730015367E-03       4    7    1        -0.2629394281E-01      0.6554612562E-01
          0                 4           1             4    7     1       0.1882116821E-04       4    7    1         0.1075423391E-02      0.2680755488E-02

    ------------------------------------------------
       NWT REQUIRED            4 OUTER ITERATIONS 
       AND A TOTAL OF          7 INNER ITERATIONS.
    ------------------------------------------------

 NO OUTPUT CONTROL FOR STRESS PERIOD   21   TIME STEP    9
 
 SOLVING FOR HEAD 
                                                   Max.-Head-Change                         Max.-Flux-Residual
  Residual-Control   Outer-Iter.   Inner-Iter.     Column Row Layer    Maximum-Head-Change  Column Row Layer    Maximum-Flux-Residual          L2-NORM 
          0                 1           2             4    7     1      -0.7055437029E-01       4    7    1        -0.3710229524E+01      0.9316091465E+01
          0                 2           2             4    7     1       0.6841693875E-02       4    7    1         0.3696727446E+00      0.9316232755E+00
          0                 3           2             4    7     1      -0.4658950635E-03       4    7    1        -0.2587717365E-01      0.6521237815E-01
          0                 4           1             4    7     1       0.1853839572E-04       4    7    1         0.1058377540E-02      0.2667118653E-02

    ------------------------------------------------
       NWT REQUIRED            4 OUTER ITERATIONS 
       AND A TOTAL OF          7 INNER ITERATIONS.
    ------------------------------------------------

 NO OUTPUT CONTROL FOR STRESS PERIOD   21   TIME STEP   10
 
 SOLVING FOR HEAD 
                                                   Max.-Head-Change                         Max.-Flux-Residual
  Residual-Control   Outer-Iter.   Inner-Iter.     Column Row Layer    Maximum-Head-Change  Column Row Layer    Maximum-Flux-Residual          L2-NORM 
          0                 1           2             4    7     1      -0.6977591545E-01       4    7    1        -0.3666953011E+01      0.9269678674E+01
          0                 2           2             4    7     1       0.6787186173E-02       4    7    1         0.3666880147E+00      0.9269498110E+00
          0                 3           2             4    7     1      -0.4621832697E-03       4    7    1        -0.2566824106E-01      0.6488562961E-01
          0                 4           1             4    7     1       0.1839070013E-04       4    7    1         0.1049832194E-02      0.2653785443E-02

    ------------------------------------------------
       NWT REQUIRED            4 OUTER ITERATIONS 
       AND A TOTAL OF          7 INNER ITERATIONS.
    ------------------------------------------------

 NO OUTPUT CONTROL FOR STRESS PERIOD   21   TIME STEP   11
 
 SOLVING FOR HEAD 
                                                   Max.-Head-Change                         Max.-Flux-Residual
  Residual-Control   Outer-Iter.   Inner-Iter.     Column Row Layer    Maximum-Head-Change  Column Row Layer    Maximum-Flux-Residual          L2-NORM 
          0                 1           2             4    7     1      -0.6900278693E-01       4    7    1        -0.3625364530E+01      0.9224784318E+01
          0                 2           2             4    7     1       0.6711985489E-02       4    7    1         0.3625294165E+00      0.9224624452E+00
          0                 3           2             4    7     1      -0.4570623463E-03       4    7    1        -0.2537713668E-01      0.6457145164E-01
          0                 4           1             4    7     1       0.1818693406E-04       4    7    1         0.1037926025E-02      0.2640919209E-02

    ------------------------------------------------
       NWT REQUIRED            4 OUTER ITERATIONS 
       AND A TOTAL OF          7 INNER ITERATIONS.
    ------------------------------------------------

 NO OUTPUT CONTROL FOR STRESS PERIOD   21   TIME STEP   12
 
 SOLVING FOR HEAD 
                                                   Max.-Head-Change                         Max.-Flux-Residual
  Residual-Control   Outer-Iter.   Inner-Iter.     Column Row Layer    Maximum-Head-Change  Column Row Layer    Maximum-Flux-Residual          L2-NORM 
          0                 1           2             4    7     1      -0.6825571562E-01       4    7    1        -0.3585197354E+01      0.9181300913E+01
          0                 2           2             4    7     1       0.6639319288E-02       4    7    1         0.3585129367E+00      0.9181154788E+00
          0                 3           2             4    7     1      -0.4521140137E-03       4    7    1        -0.2509598074E-01      0.6426728199E-01
          0                 4           1             4    7     1       0.1799003559E-04       4    7    1         0.1026426744E-02      0.2628485663E-02

    ------------------------------------------------
       NWT REQUIRED            4 OUTER ITERATIONS 
       AND A TOTAL OF          7 INNER ITERATIONS.
    ------------------------------------------------

 NO OUTPUT CONTROL FOR STRESS PERIOD   21   TIME STEP   13
 
 SOLVING FOR HEAD 
                                                   Max.-Head-Change                         Max.-Flux-Residual
  Residual-Control   Outer-Iter.   Inner-Iter.     Column Row Layer    Maximum-Head-Change  Column Row Layer    Maximum-Flux-Residual          L2-NORM 
          0                 1           2             4    7     1      -0.6753328238E-01       4    7    1        -0.3546374029E+01      0.9139110597E+01
          0                 2           2             4    7     1       0.6569049534E-02       4    7    1         0.3546308307E+00      0.9138976543E+00
          0                 3           2             4    7     1      -0.4473288718E-03       4    7    1        -0.2482423105E-01      0.6397212807E-01
          0                 4           1             4    7     1       0.1779963054E-04       4    7    1         0.1015312188E-02      0.2616417824E-02

    ------------------------------------------------
       NWT REQUIRED            4 OUTER ITERATIONS 
       AND A TOTAL OF          7 INNER ITERATIONS.
    ------------------------------------------------

 NO OUTPUT CONTROL FOR STRESS PERIOD   21   TIME STEP   14
 
 SOLVING FOR HEAD 
                                                   Max.-Head-Change                         Max.-Flux-Residual
  Residual-Control   Outer-Iter.   Inner-Iter.     Column Row Layer    Maximum-Head-Change  Column Row Layer    Maximum-Flux-Residual          L2-NORM 
          0                 1           2             4    7     1      -0.6683452843E-01       4    7    1        -0.3508842699E+01      0.9098117177E+01
          0                 2           2             4    7     1       0.6501082970E-02       4    7    1         0.3508779132E+00      0.9097993784E+00
          0                 3           2             4    7     1      -0.4427005699E-03       4    7    1        -0.2456152469E-01      0.6368533658E-01
          0                 4           1             4    7     1       0.1761546575E-04       4    7    1         0.1004567465E-02      0.2604697314E-02

    ------------------------------------------------
       NWT REQUIRED            4 OUTER ITERATIONS 
       AND A TOTAL OF          7 INNER ITERATIONS.
    ------------------------------------------------

 NO OUTPUT CONTROL FOR STRESS PERIOD   21   TIME STEP   15
 
 SOLVING FOR HEAD 
                                                   Max.-Head-Change                         Max.-Flux-Residual
  Residual-Control   Outer-Iter.   Inner-Iter.     Column Row Layer    Maximum-Head-Change  Column Row Layer    Maximum-Flux-Residual          L2-NORM 
          0                 1           2             4    7     1      -0.6615827843E-01       4    7    1        -0.3472539164E+01      0.9058226601E+01
          0                 2           2             4    7     1       0.6435305278E-02       4    7    1         0.3472477649E+00      0.9058113010E+00
          0                 3           2             4    7     1      -0.4382213237E-03       4    7    1        -0.2430741225E-01      0.6340623865E-01
          0                 4           1             4    7     1       0.1743723280E-04       4    7    1         0.9941742844E-03      0.2593271663E-02

    ------------------------------------------------
       NWT REQUIRED            4 OUTER ITERATIONS 
       AND A TOTAL OF          7 INNER ITERATIONS.
    ------------------------------------------------

 NO OUTPUT CONTROL FOR STRESS PERIOD   21   TIME STEP   16
 
 SOLVING FOR HEAD 
                                                   Max.-Head-Change                         Max.-Flux-Residual
  Residual-Control   Outer-Iter.   Inner-Iter.     Column Row Layer    Maximum-Head-Change  Column Row Layer    Maximum-Flux-Residual          L2-NORM 
          0                 1           2             4    7     1      -0.6550328363E-01       4    7    1        -0.3437395245E+01      0.9019360295E+01
          0                 2           2             4    7     1       0.6371594997E-02       4    7    1         0.3437335685E+00      0.9019254688E+00
          0                 3           2             4    7     1      -0.4338828621E-03       4    7    1        -0.2406141654E-01      0.6313430189E-01
          0                 4           1             4    7     1       0.1726460138E-04       4    7    1         0.9841130543E-03      0.2582163599E-02

    ------------------------------------------------
       NWT REQUIRED            4 OUTER ITERATIONS 
       AND A TOTAL OF          7 INNER ITERATIONS.
    ------------------------------------------------

 NO OUTPUT CONTROL FOR STRESS PERIOD   21   TIME STEP   17
 
 SOLVING FOR HEAD 
                                                   Max.-Head-Change                         Max.-Flux-Residual
  Residual-Control   Outer-Iter.   Inner-Iter.     Column Row Layer    Maximum-Head-Change  Column Row Layer    Maximum-Flux-Residual          L2-NORM 
          0                 1           2             4    7     1      -0.6486875576E-01       4    7    1        -0.3403367909E+01      0.8981458367E+01
          0                 2           2             4    7     1       0.6309875453E-02       4    7    1         0.3403310210E+00      0.8981359430E+00
          0                 3           2             4    7     1      -0.4296799629E-03       4    7    1        -0.2382323635E-01      0.6286910172E-01
          0                 4           1             4    7     1       0.1709736403E-04       4    7    1         0.9743714643E-03      0.2571322289E-02

    ------------------------------------------------
       NWT REQUIRED            4 OUTER ITERATIONS 
       AND A TOTAL OF          7 INNER ITERATIONS.
    ------------------------------------------------

 NO OUTPUT CONTROL FOR STRESS PERIOD   21   TIME STEP   18
 
 SOLVING FOR HEAD 
                                                   Max.-Head-Change                         Max.-Flux-Residual
  Residual-Control   Outer-Iter.   Inner-Iter.     Column Row Layer    Maximum-Head-Change  Column Row Layer    Maximum-Flux-Residual          L2-NORM 
          0                 1           2             4    7     1      -0.6425354794E-01       4    7    1        -0.3370394568E+01      0.8944447172E+01
          0                 2           2             4    7     1       0.6250035095E-02       4    7    1         0.3370338642E+00      0.8944355286E+00
          0                 3           2             4    7     1      -0.4256050311E-03       4    7    1        -0.2359243358E-01      0.6261011803E-01
          0                 4           1             4    7     1       0.1693521890E-04       4    7    1         0.9649316346E-03      0.2560729232E-02

    ------------------------------------------------
       NWT REQUIRED            4 OUTER ITERATIONS 
       AND A TOTAL OF          7 INNER ITERATIONS.
    ------------------------------------------------

 NO OUTPUT CONTROL FOR STRESS PERIOD   21   TIME STEP   19
 
 SOLVING FOR HEAD 
                                                   Max.-Head-Change                         Max.-Flux-Residual
  Residual-Control   Outer-Iter.   Inner-Iter.     Column Row Layer    Maximum-Head-Change  Column Row Layer    Maximum-Flux-Residual          L2-NORM 
          0                 1           2             4    7     1      -0.6365683457E-01       4    7    1        -0.3338430230E+01      0.8908266989E+01
          0                 2           2             4    7     1       0.6191993624E-02       4    7    1         0.3338375994E+00      0.8908180811E+00
          0                 3           2             4    7     1      -0.4216525983E-03       4    7    1        -0.2336869338E-01      0.6235694053E-01
          0                 4           1             4    7     1       0.1677794826E-04       4    7    1         0.9557806525E-03      0.2550380044E-02

    ------------------------------------------------
       NWT REQUIRED            4 OUTER ITERATIONS 
       AND A TOTAL OF          7 INNER ITERATIONS.
    ------------------------------------------------

 NO OUTPUT CONTROL FOR STRESS PERIOD   21   TIME STEP   20
 
 SOLVING FOR HEAD 
                                                   Max.-Head-Change                         Max.-Flux-Residual
  Residual-Control   Outer-Iter.   Inner-Iter.     Column Row Layer    Maximum-Head-Change  Column Row Layer    Maximum-Flux-Residual          L2-NORM 
          0                 1           2             4    7     1      -0.6307770215E-01       4    7    1        -0.3307424851E+01      0.8872875006E+01
          0                 2           2             4    7     1       0.6135662183E-02       4    7    1         0.3307372225E+00      0.8872793843E+00
          0                 3           2             4    7     1      -0.4178166126E-03       4    7    1        -0.2315166535E-01      0.6210926388E-01
          0                 4           1             4    7     1       0.1662531071E-04       4    7    1         0.9469042009E-03      0.2540253053E-02

    ------------------------------------------------
       NWT REQUIRED            4 OUTER ITERATIONS 
       AND A TOTAL OF          7 INNER ITERATIONS.
    ------------------------------------------------

 NO OUTPUT CONTROL FOR STRESS PERIOD   21   TIME STEP   21
 
 SOLVING FOR HEAD 
                                                   Max.-Head-Change                         Max.-Flux-Residual
  Residual-Control   Outer-Iter.   Inner-Iter.     Column Row Layer    Maximum-Head-Change  Column Row Layer    Maximum-Flux-Residual          L2-NORM 
          0                 1           2             4    7     1      -0.6251542221E-01       4    7    1        -0.3277338299E+01      0.8838241815E+01
          0                 2           2             4    7     1       0.6080969920E-02       4    7    1         0.3277287207E+00      0.8838165277E+00
          0                 3           2             4    7     1      -0.4140922505E-03       4    7    1        -0.2294106870E-01      0.6186690370E-01
          0                 4           1             4    7     1       0.1647711501E-04       4    7    1         0.9382907774E-03      0.2530336349E-02

    ------------------------------------------------
       NWT REQUIRED            4 OUTER ITERATIONS 
       AND A TOTAL OF          7 INNER ITERATIONS.
    ------------------------------------------------

 NO OUTPUT CONTROL FOR STRESS PERIOD   21   TIME STEP   22
 
 SOLVING FOR HEAD 
                                                   Max.-Head-Change                         Max.-Flux-Residual
  Residual-Control   Outer-Iter.   Inner-Iter.     Column Row Layer    Maximum-Head-Change  Column Row Layer    Maximum-Flux-Residual          L2-NORM 
          0                 1           2             4    7     1      -0.6196903352E-01       4    7    1        -0.3248118333E+01      0.8804301580E+01
          0                 2           2             4    7     1       0.6027823341E-02       4    7    1         0.3248068705E+00      0.8804229041E+00
          0                 3           2             4    7     1      -0.4104731449E-03       4    7    1        -0.2273653772E-01      0.6162938422E-01
          0                 4           1             4    7     1       0.1633310753E-04       4    7    1         0.9299254668E-03      0.2520624960E-02

    ------------------------------------------------
       NWT REQUIRED            4 OUTER ITERATIONS 
       AND A TOTAL OF          7 INNER ITERATIONS.
    ------------------------------------------------

 NO OUTPUT CONTROL FOR STRESS PERIOD   21   TIME STEP   23
 
 SOLVING FOR HEAD 
                                                   Max.-Head-Change                         Max.-Flux-Residual
  Residual-Control   Outer-Iter.   Inner-Iter.     Column Row Layer    Maximum-Head-Change  Column Row Layer    Maximum-Flux-Residual          L2-NORM 
          0                 1           2             4    7     1      -0.6143789542E-01       4    7    1        -0.3219729580E+01      0.8771035490E+01
          0                 2           2             4    7     1       0.5976160128E-02       4    7    1         0.3219681349E+00      0.8770966487E+00
          0                 3           2             4    7     1      -0.4069550515E-03       4    7    1        -0.2253782481E-01      0.6139656353E-01
          0                 4           1             4    7     1       0.1619311951E-04       4    7    1         0.9217981092E-03      0.2511107635E-02

    ------------------------------------------------
       NWT REQUIRED            4 OUTER ITERATIONS 
       AND A TOTAL OF          7 INNER ITERATIONS.
    ------------------------------------------------

 NO OUTPUT CONTROL FOR STRESS PERIOD   21   TIME STEP   24
 
 SOLVING FOR HEAD 
                                                   Max.-Head-Change                         Max.-Flux-Residual
  Residual-Control   Outer-Iter.   Inner-Iter.     Column Row Layer    Maximum-Head-Change  Column Row Layer    Maximum-Flux-Residual          L2-NORM 
          0                 1           2             4    7     1      -0.6092125933E-01       4    7    1        -0.3192131588E+01      0.8738393888E+01
          0                 2           2             4    7     1       0.5925907474E-02       4    7    1         0.3192084689E+00      0.8738328063E+00
          0                 3           2             4    7     1      -0.4035330131E-03       4    7    1        -0.2234464686E-01      0.6116813182E-01
          0                 4           1             4    7     1       0.1605695326E-04       4    7    1         0.9138971279E-03      0.2501771636E-02

    ------------------------------------------------
       NWT REQUIRED            4 OUTER ITERATIONS 
       AND A TOTAL OF          7 INNER ITERATIONS.
    ------------------------------------------------

 NO OUTPUT CONTROL FOR STRESS PERIOD   21   TIME STEP   25
 
 SOLVING FOR HEAD 
                                                   Max.-Head-Change                         Max.-Flux-Residual
  Residual-Control   Outer-Iter.   Inner-Iter.     Column Row Layer    Maximum-Head-Change  Column Row Layer    Maximum-Flux-Residual          L2-NORM 
          0                 1           2             4    7     1      -0.6041843056E-01       4    7    1        -0.3165285544E+01      0.8706363034E+01
          0                 2           2             4    7     1       0.5876997808E-02       4    7    1         0.3165239918E+00      0.8706300248E+00
          0                 3           2             4    7     1      -0.4002024278E-03       4    7    1        -0.2215673216E-01      0.6094395874E-01
          0                 4           1             4    7     1       0.1592442620E-04       4    7    1         0.9062114027E-03      0.2492594003E-02

    ------------------------------------------------
       NWT REQUIRED            4 OUTER ITERATIONS 
       AND A TOTAL OF          7 INNER ITERATIONS.
    ------------------------------------------------

 NO OUTPUT CONTROL FOR STRESS PERIOD   21   TIME STEP   26
 
 SOLVING FOR HEAD 
                                                   Max.-Head-Change                         Max.-Flux-Residual
  Residual-Control   Outer-Iter.   Inner-Iter.     Column Row Layer    Maximum-Head-Change  Column Row Layer    Maximum-Flux-Residual          L2-NORM 
          0                 1           2             4    7     1      -0.5992887448E-01       4    7    1        -0.3139162655E+01      0.8674910375E+01
          0                 2           2             4    7     1       0.5829379130E-02       4    7    1         0.3139118244E+00      0.8674850766E+00
          0                 3           2             4    7     1      -0.3969597552E-03       4    7    1        -0.2197387922E-01      0.6072383197E-01
          0                 4           1             4    7     1       0.1579539763E-04       4    7    1         0.8987327258E-03      0.2483598989E-02

    ------------------------------------------------
       NWT REQUIRED            4 OUTER ITERATIONS 
       AND A TOTAL OF          7 INNER ITERATIONS.
    ------------------------------------------------

 NO OUTPUT CONTROL FOR STRESS PERIOD   21   TIME STEP   27
 
 SOLVING FOR HEAD 
                                                   Max.-Head-Change                         Max.-Flux-Residual
  Residual-Control   Outer-Iter.   Inner-Iter.     Column Row Layer    Maximum-Head-Change  Column Row Layer    Maximum-Flux-Residual          L2-NORM 
          0                 1           2             4    7     1      -0.5945195550E-01       4    7    1        -0.3113727972E+01      0.8644004993E+01
          0                 2           2             4    7     1       0.5782989619E-02       4    7    1         0.3113684720E+00      0.8643947151E+00
          0                 3           2             4    7     1      -0.3938007844E-03       4    7    1        -0.2179584337E-01      0.6050751345E-01
          0                 4           1             4    7     1       0.1566969913E-04       4    7    1         0.8914510415E-03      0.2474752463E-02

    ------------------------------------------------
       NWT REQUIRED            4 OUTER ITERATIONS 
       AND A TOTAL OF          7 INNER ITERATIONS.
    ------------------------------------------------

 NO OUTPUT CONTROL FOR STRESS PERIOD   21   TIME STEP   28
 
 SOLVING FOR HEAD 
                                                   Max.-Head-Change                         Max.-Flux-Residual
  Residual-Control   Outer-Iter.   Inner-Iter.     Column Row Layer    Maximum-Head-Change  Column Row Layer    Maximum-Flux-Residual          L2-NORM 
          0                 1           2             4    7     1      -0.5898694431E-01       4    7    1        -0.3088941310E+01      0.8613631860E+01
          0                 2           2             4    7     1       0.5737758338E-02       4    7    1         0.3088899169E+00      0.8613576196E+00
          0                 3           2             4    7     1      -0.3907206861E-03       4    7    1        -0.2162234339E-01      0.6029493954E-01
          0                 4           1             4    7     1       0.1554713912E-04       4    7    1         0.8843548906E-03      0.2466064462E-02

    ------------------------------------------------
       NWT REQUIRED            4 OUTER ITERATIONS 
       AND A TOTAL OF          7 INNER ITERATIONS.
    ------------------------------------------------

 NO OUTPUT CONTROL FOR STRESS PERIOD   21   TIME STEP   29
 
 SOLVING FOR HEAD 
                                                   Max.-Head-Change                         Max.-Flux-Residual
  Residual-Control   Outer-Iter.   Inner-Iter.     Column Row Layer    Maximum-Head-Change  Column Row Layer    Maximum-Flux-Residual          L2-NORM 
          0                 1           2             4    7     1      -0.5853354383E-01       4    7    1        -0.3064786536E+01      0.8583767203E+01
          0                 2           2             4    7     1       0.5693656389E-02       4    7    1         0.3064745456E+00      0.8583713453E+00
          0                 3           2             4    7     1      -0.3877174919E-03       4    7    1        -0.2145326634E-01      0.6008589615E-01
          0                 4           1             4    7     1       0.1542763920E-04       4    7    1         0.8774396294E-03      0.2457498049E-02

    ------------------------------------------------
       NWT REQUIRED            4 OUTER ITERATIONS 
       AND A TOTAL OF          7 INNER ITERATIONS.
    ------------------------------------------------

 NO OUTPUT CONTROL FOR STRESS PERIOD   21   TIME STEP   30



 STREAM LISTING     PERIOD     21   STEP       30

 LAYER ROW COL. STREAM  RCH.  FLOW INTO     FLOW TO   FLOW OUT OF   OVRLND.     DIRECT     STREAM       STREAM     STREAM     STREAM   STREAMBED  STREAMBED
                SEG.NO.  NO.  STRM. RCH.    AQUIFER    STRM. RCH.    RUNOFF     PRECIP       ET          HEAD       DEPTH      WIDTH   CONDCTNC.   GRADIENT

   1    1    1     1     1    3.7001E+01  2.9351E-01   3.6707E+01  0.000E+00  0.000E+00  0.000E+00  1.09436E+03  1.308E+00  1.514E+01  6.812E-02  1.436E+00
   1    2    2     1     2    3.6707E+01  4.5449E-01   3.6253E+01  0.000E+00  0.000E+00  0.000E+00  1.08936E+03  1.305E+00  1.508E+01  1.056E-01  1.435E+00
   1    3    3     1     3    3.6253E+01  3.8754E-01   3.5865E+01  0.000E+00  0.000E+00  0.000E+00  1.08372E+03  1.302E+00  1.501E+01  9.008E-02  1.434E+00
   1    3    4     1     4    3.5865E+01  3.5682E-01   3.5508E+01  0.000E+00  0.000E+00  0.000E+00  1.07871E+03  1.299E+00  1.495E+01  8.300E-02  1.433E+00
   1    4    5     2     1    3.3508E+01  3.4594E-01   3.3162E+01  0.000E+00  0.000E+00  0.000E+00  1.07337E+03  1.435E+00  1.200E+01  7.800E-02  1.478E+00
   1    5    6     2     2    3.3162E+01  2.6563E-01   3.2897E+01  0.000E+00  0.000E+00  0.000E+00  1.06794E+03  1.427E+00  1.200E+01  6.000E-02  1.476E+00
   1    6    6     2     3    3.2897E+01  2.6522E-01   3.2631E+01  0.000E+00  0.000E+00  0.000E+00  1.06321E+03  1.420E+00  1.200E+01  6.000E-02  1.473E+00
   1    7    6     2     4    3.2631E+01  2.6480E-01   3.2367E+01  0.000E+00  0.000E+00  0.000E+00  1.05849E+03  1.413E+00  1.200E+01  6.000E-02  1.471E+00
   1    8    6     2     5    3.2367E+01  2.6439E-01   3.2102E+01  0.000E+00  0.000E+00  0.000E+00  1.05377E+03  1.406E+00  1.200E+01  6.000E-02  1.469E+00
   1    3    5     3     1    2.0000E+00  2.8252E-01   1.7175E+00  0.000E+00  0.000E+00  0.000E+00  1.07555E+03  1.909E+00  9.636E+00  7.227E-02  1.955E+00
   1    3    6     3     2    1.7175E+00  2.4905E-01   1.4684E+00  0.000E+00  0.000E+00  0.000E+00  1.07264E+03  1.727E+00  8.909E+00  6.682E-02  1.864E+00
   1    3    7     3     3    1.4684E+00  1.9718E-01   1.2712E+00  0.000E+00  0.000E+00  0.000E+00  1.06987E+03  1.555E+00  8.218E+00  5.547E-02  1.777E+00
   1    4    8     3     4    1.2712E+00  2.2567E-01   1.0456E+00  0.000E+00  0.000E+00  0.000E+00  1.06682E+03  1.364E+00  7.455E+00  6.709E-02  1.682E+00
   1    5    8     3     5    1.0456E+00  1.5790E-01   8.8768E-01  0.000E+00  0.000E+00  0.000E+00  1.06362E+03  1.164E+00  6.655E+00  4.991E-02  1.582E+00
   1    6    8     3     6    8.8768E-01  5.5980E-02   8.3170E-01  0.000E+00  0.000E+00  0.000E+00  1.06158E+03  1.036E+00  6.145E+00  1.844E-02  1.518E+00
   1    5   10     4     1    1.0000E+01  9.0919E-02   9.9091E+00  0.000E+00  0.000E+00  0.000E+00  1.07836E+03  6.368E-01  1.000E+01  2.500E-02  1.212E+00
   1    5    9     4     2    9.9091E+00  1.8158E-01   9.7275E+00  0.000E+00  0.000E+00  0.000E+00  1.07154E+03  6.315E-01  1.000E+01  5.000E-02  1.211E+00
   1    6    8     4     3    9.7275E+00  1.2689E-01   9.6006E+00  0.000E+00  0.000E+00  0.000E+00  1.06381E+03  6.256E-01  1.000E+01  3.500E-02  1.209E+00
   1    6    8     5     1    1.0432E+01  2.2686E-01   1.0205E+01  0.000E+00  0.000E+00  0.000E+00  1.05868E+03  6.790E-01  1.542E+01  6.166E-02  1.226E+00
   1    7    7     5     2    1.0205E+01  2.7894E-01   9.9265E+00  0.000E+00  0.000E+00  0.000E+00  1.05417E+03  6.732E-01  1.519E+01  7.594E-02  1.224E+00
   1    8    7     5     3    9.9265E+00  1.9221E-01   9.7343E+00  0.000E+00  0.000E+00  0.000E+00  1.04992E+03  6.676E-01  1.497E+01  5.241E-02  1.223E+00
   1    8    6     5     4    9.7343E+00  1.3577E-01   9.5985E+00  0.000E+00  0.000E+00  0.000E+00  1.04691E+03  6.637E-01  1.482E+01  3.706E-02  1.221E+00
   1    9    6     6     1    4.1701E+01  2.7939E-01   4.1421E+01  0.000E+00  0.000E+00  0.000E+00  1.04438E+03  1.656E+00  1.200E+01  6.000E-02  1.552E+00
   1   10    7     6     2    4.1421E+01  2.7899E-01   4.1142E+01  0.000E+00  0.000E+00  0.000E+00  1.03983E+03  1.650E+00  1.200E+01  6.000E-02  1.550E+00
   1   11    7     6     3    4.1142E+01  2.7859E-01   4.0864E+01  0.000E+00  0.000E+00  0.000E+00  1.03528E+03  1.643E+00  1.200E+01  6.000E-02  1.548E+00
   1   12    7     6     4    4.0864E+01  2.7818E-01   4.0586E+01  0.000E+00  0.000E+00  0.000E+00  1.03073E+03  1.636E+00  1.200E+01  6.000E-02  1.545E+00
   1   13    7     6     5    4.0586E+01  1.1418E-02   4.0574E+01  0.000E+00  0.000E+00  0.000E+00  1.02754E+03  1.633E+00  1.200E+01  2.400E-02  1.586E-01
   1   14    9     7     1    1.5000E+02  1.3335E+00   1.4867E+02  0.000E+00  0.000E+00  0.000E+00  1.03987E+03  2.288E+00  5.529E+01  5.593E-01  7.947E-01
   1   13    8     7     2    1.4867E+02  1.8341E+00   1.4683E+02  0.000E+00  0.000E+00  0.000E+00  1.03478E+03  2.279E+00  5.526E+01  6.148E-01  9.945E-01
   1   13    7     7     3    1.4683E+02  1.4652E+00   1.4537E+02  0.000E+00  0.000E+00  0.000E+00  1.02969E+03  2.270E+00  5.522E+01  5.585E-01  8.745E-01
   1   13    6     8     1    1.8594E+02  9.7989E-01   1.8496E+02  0.000E+00  0.000E+00  0.000E+00  1.02493E+03  3.050E+00  4.423E+01  4.507E-01  7.247E-01
   1   13    5     8     2    1.8496E+02  2.0889E-01   1.8475E+02  0.000E+00  0.000E+00  0.000E+00  1.01867E+03  3.046E+00  4.417E+01  4.501E-01  1.547E-01
   1   13    4     8     3    1.8475E+02 -2.3579E+00   1.8711E+02  0.000E+00  0.000E+00  0.000E+00  1.01243E+03  3.053E+00  4.427E+01  4.511E+00 -1.742E-01
   1   13    3     8     4    1.8711E+02 -3.6212E+00   1.9073E+02  0.000E+00  0.000E+00  0.000E+00  1.00620E+03  3.071E+00  4.453E+01  4.538E+00 -2.660E-01
   1   13    2     8     5    1.9073E+02 -2.5890E+00   1.9332E+02  0.000E+00  0.000E+00  0.000E+00  9.99965E+02  3.090E+00  4.481E+01  4.566E+00 -1.890E-01
   1   13    1     8     6    1.9332E+02 -2.0213E+00   1.9534E+02  0.000E+00  0.000E+00  0.000E+00  9.94979E+02  3.104E+00  4.501E+01  2.752E+00 -2.448E-01





UNSATURATED ZONE PACKAGE VOLUMETRIC BUDGET FOR  TIME STEP    30 STRESS PERIOD   21
  ------------------------------------------------------------------------------



     CUMULATIVE VOLUMES      L**3       RATES FOR THIS TIME STEP      L**3/T
     ------------------                 ------------------------

           IN:                                      IN:
           ---                                      ---
        INFILTRATION =   885227732.8154          INFILTRATION =          49.5675

          OUT:                                     OUT:
          ----                                     ----
              UZF ET =   809300148.5079                UZF ET =          49.5675
        UZF RECHARGE =    37930890.8416          UZF RECHARGE =       0.0000E+00

            IN - OUT =    37996693.4660              IN - OUT =       0.0000E+00

          STORAGE:                                 STORAGE:
          --------                                 --------
      STORAGE CHANGE =    37996697.3574        STORAGE CHANGE =      -3.4489E-14

 PERCENT DISCREPANCY IS DIFFERENCE BETWEEN IN-OUT MINUS CHANGE IN STORAGE
 DIVIDED BY THE AVERAGE OF IN AND OUT TIMES 100

 PERCENT DISCREPANCY =           0.00     PERCENT DISCREPANCY =           0.00






1
  VOLUMETRIC BUDGET FOR AGRICULTURAL FIELDS AT  END OF TIME STEP   30, STRESS PERIOD  21
  ------------------------------------------------------------------------------

     CUMULATIVE VOLUMES      L**3       RATES FOR THIS TIME STEP      L**3/T
     ------------------                 ------------------------

           IN:                                      IN:
           ---                                      ---
               AG WELLS  =   840574848.0000                 AG WELLS  =          48.7200
      DIVERSION SEGMENTS =           0.0000        DIVERSION SEGMENTS =           0.0000
           GW IRRIGATION =           0.0000             GW IRRIGATION =           0.0000
           SW IRRIGATION =           0.0000             SW IRRIGATION =           0.0000
        SYSTEM LOSSES GW =           0.0000          SYSTEM LOSSES GW =           0.0000
        SYSTEM LOSSES SW =           0.0000          SYSTEM LOSSES SW =           0.0000

                TOTAL IN =   840574848.0000                  TOTAL IN =          48.7200

          OUT:                                     OUT:
          ----                                     ----
               AG WELLS  =           0.0000                 AG WELLS  =           0.0000
      DIVERSION SEGMENTS =           0.0000        DIVERSION SEGMENTS =           0.0000
           GW IRRIGATION =   840574848.0000             GW IRRIGATION =          48.7200
           SW IRRIGATION =           0.0000             SW IRRIGATION =           0.0000
        SYSTEM LOSSES GW =           0.0000          SYSTEM LOSSES GW =           0.0000
        SYSTEM LOSSES SW =           0.0000          SYSTEM LOSSES SW =           0.0000

               TOTAL OUT =   840574848.0000                 TOTAL OUT =          48.7200

                IN - OUT =           0.0000                  IN - OUT =           0.0000

     PERCENT DISCREPANCY =           0.00         PERCENT DISCREPANCY =           0.00



1
  VOLUMETRIC BUDGET FOR ENTIRE MODEL AT END OF TIME STEP   30, STRESS PERIOD  21
  ------------------------------------------------------------------------------

     CUMULATIVE VOLUMES      L**3       RATES FOR THIS TIME STEP      L**3/T
     ------------------                 ------------------------

           IN:                                      IN:
           ---                                      ---
             STORAGE     =   986674816.0000               STORAGE     =          47.3026
       CONSTANT HEAD     =           0.0000         CONSTANT HEAD     =           0.0000
     HEAD DEP BOUNDS     =    15038135.0000       HEAD DEP BOUNDS     =           0.2856
      STREAM LEAKAGE     =   661845056.0000        STREAM LEAKAGE     =          12.2479
        UZF RECHARGE     =    37930912.0000          UZF RECHARGE     =           0.0000
               GW ET     =           0.0000                 GW ET     =           0.0000
     SURFACE LEAKAGE     =           0.0000       SURFACE LEAKAGE     =           0.0000
           AG WELLS      =           0.0000             AG WELLS      =           0.0000

                TOTAL IN =  1701488896.0000                  TOTAL IN =          59.8362

          OUT:                                     OUT:
          ----                                     ----
             STORAGE     =   283929504.0000               STORAGE     =           0.2339
       CONSTANT HEAD     =           0.0000         CONSTANT HEAD     =           0.0000
     HEAD DEP BOUNDS     =    15529319.0000       HEAD DEP BOUNDS     =           0.2931
      STREAM LEAKAGE     =   543844224.0000        STREAM LEAKAGE     =          10.5893
        UZF RECHARGE     =           0.0000          UZF RECHARGE     =           0.0000
               GW ET     =    17607600.0000                 GW ET     =           0.0000
     SURFACE LEAKAGE     =           0.0000       SURFACE LEAKAGE     =           0.0000
           AG WELLS      =   840574848.0000             AG WELLS      =          48.7200

               TOTAL OUT =  1701485568.0000                 TOTAL OUT =          59.8363

                IN - OUT =        3328.0000                  IN - OUT =      -1.6785E-04

     PERCENT DISCREPANCY =           0.00         PERCENT DISCREPANCY =          -0.00






         TIME SUMMARY AT END OF TIME STEP   30 IN STRESS PERIOD   21
                    SECONDS     MINUTES      HOURS       DAYS        YEARS
                    -----------------------------------------------------------
   TIME STEP LENGTH  87667.      1461.1      24.352      1.0147     2.77799E-03
 STRESS PERIOD TIME 2.63000E+06  43833.      730.56      30.440     8.33397E-02
         TOTAL TIME 5.26866E+07 8.78110E+05  14635.      609.80      1.6695    
1
1
                            STRESS PERIOD NO.   22, LENGTH =   2630000.    
                            -----------------------------------------------

                              NUMBER OF TIME STEPS =    30

                               MULTIPLIER FOR DELT =     1.000

                            INITIAL TIME STEP SIZE =   87666.66    

 REUSING NON-PARAMETER GHB CELLS FROM LAST STRESS PERIOD

      2 GHB CELLS

 REUSING STREAM SEGMENT DATA FROM LAST STRESS PERIOD



            AREAL INFILTRATION RATE
 READING ON UNIT   19 WITH FORMAT: (FREE)              

            1           2           3           4           5           6           7           8           9          10
 ........................................................................................................................
   1   1.0000E-10  2.0000E-10   0.000       0.000       0.000       0.000       0.000       0.000       0.000       0.000    
   2   2.0000E-10  1.0000E-10  2.0000E-10   0.000       0.000      8.0000E-10  8.0000E-10  5.0000E-10   0.000       0.000    
   3    0.000      5.0000E-10  1.0000E-10  1.0000E-10  8.0000E-10  8.0000E-10  5.0000E-10  5.0000E-10   0.000       0.000    
   4   8.0000E-10  5.0000E-10  1.0000E-10  1.0000E-10  1.0000E-10  1.0000E-10  1.0000E-10  1.0000E-10  2.0000E-10   0.000    
   5   8.0000E-10  5.0000E-10  1.0000E-10  1.0000E-10  1.0000E-10  1.0000E-10  1.0000E-10  1.0000E-10  1.0000E-10  1.0000E-10
   6   8.0000E-10  5.0000E-10  5.0000E-10  2.0000E-10  2.0000E-10  1.0000E-10  1.0000E-10  1.0000E-10  1.0000E-10  5.0000E-10
   7   8.0000E-10  5.0000E-10  5.0000E-10  2.0000E-10  2.0000E-10  1.0000E-10  1.0000E-10  2.0000E-10  2.0000E-10   0.000    
   8    0.000      5.0000E-10  5.0000E-10  2.0000E-10  2.0000E-10  1.0000E-10  1.0000E-10  2.0000E-10  5.0000E-10   0.000    
   9    0.000      5.0000E-10  5.0000E-10  2.0000E-10  2.0000E-10  1.0000E-10  1.0000E-10  2.0000E-10  5.0000E-10   0.000    
  10    0.000      5.0000E-10  5.0000E-10  2.0000E-10  2.0000E-10  1.0000E-10  1.0000E-10  2.0000E-10  5.0000E-10  8.0000E-10
  11    0.000      1.0000E-10  1.0000E-10  1.0000E-10  1.0000E-10  1.0000E-10  1.0000E-10  2.0000E-10  5.0000E-10   0.000    
  12   1.0000E-10  1.0000E-10  1.0000E-10  1.0000E-10  1.0000E-10  1.0000E-10  1.0000E-10  1.0000E-10  2.0000E-10   0.000    
  13   1.0000E-10  1.0000E-10  2.0000E-10  2.0000E-10  2.0000E-10  2.0000E-10  2.0000E-10  1.0000E-10  1.0000E-10   0.000    
  14    0.000      2.0000E-10  5.0000E-10  5.0000E-10  5.0000E-10  5.0000E-10  5.0000E-10  2.0000E-10  1.0000E-10   0.000    
  15    0.000       0.000      8.0000E-10  8.0000E-10  8.0000E-10  8.0000E-10   0.000       0.000       0.000       0.000    

                  ET RATE =  7.500000E-08

 USING ET EXTINCTION DEPTH FROM PREVIOUS STRESS PERIOD. CURRENT PERIOD IS:      22

 USING EXTINCTION WATER CONTENT FROM PREVIOUS STRESS PERIOD. CURRENT PERIOD IS:      22

 USING AIR ENTRY PRESSURE FROM PREVIOUS STRESS PERIOD. CURRENT PERIOD IS:      22

 USING ROOT PRESSURE HEAD FROM PREVIOUS STRESS PERIOD. CURRENT PERIOD IS:      22

 USING ROOT ACTIVITY FROM PREVIOUS STRESS PERIOD. CURRENT PERIOD IS:      22

 PROCESSING AG STRESS PERIOD DATA

 READING AG STRESS PERIOD DATA

 READING IRRIGATION WELL

 END PROCESSING AG STRESS PERIOD DATA OPTIONS
 
 SOLVING FOR HEAD 
                                                   Max.-Head-Change                         Max.-Flux-Residual
  Residual-Control   Outer-Iter.   Inner-Iter.     Column Row Layer    Maximum-Head-Change  Column Row Layer    Maximum-Flux-Residual          L2-NORM 
          0                 1           2             5    8     1       0.7506036380E-01       5    8    1         0.4082735897E+01      0.1092571682E+02
          0                 2           2             5    8     1      -0.7301196737E-02       5    8    1        -0.4082645655E+00      0.1092497206E+01
          0                 3           2             5    8     1       0.4971857213E-03       5    8    1         0.2857861845E-01      0.7647061308E-01
          0                 4           1             5    8     1      -0.1978347964E-04       5    8    1        -0.1168866708E-02      0.3127350834E-02

    ------------------------------------------------
       NWT REQUIRED            4 OUTER ITERATIONS 
       AND A TOTAL OF          7 INNER ITERATIONS.
    ------------------------------------------------

 NO OUTPUT CONTROL FOR STRESS PERIOD   22   TIME STEP    1
 
 SOLVING FOR HEAD 
                                                   Max.-Head-Change                         Max.-Flux-Residual
  Residual-Control   Outer-Iter.   Inner-Iter.     Column Row Layer    Maximum-Head-Change  Column Row Layer    Maximum-Flux-Residual          L2-NORM 
          0                 1           2             5    8     1       0.7176781335E-01       5    8    1         0.3900531482E+01      0.1059352006E+02
          0                 2           2             5    8     1      -0.6980929910E-02       5    8    1        -0.3900447172E+00      0.1059270355E+01
          0                 3           2             5    8     1       0.4753766542E-03       5    8    1         0.2730322288E-01      0.7414382529E-01
          0                 4           1             5    8     1      -0.1891567715E-04       5    8    1        -0.1116703001E-02      0.3032149625E-02

    ------------------------------------------------
       NWT REQUIRED            4 OUTER ITERATIONS 
       AND A TOTAL OF          7 INNER ITERATIONS.
    ------------------------------------------------

 NO OUTPUT CONTROL FOR STRESS PERIOD   22   TIME STEP    2
 
 SOLVING FOR HEAD 
                                                   Max.-Head-Change                         Max.-Flux-Residual
  Residual-Control   Outer-Iter.   Inner-Iter.     Column Row Layer    Maximum-Head-Change  Column Row Layer    Maximum-Flux-Residual          L2-NORM 
          0                 1           2             5    8     1       0.6867450870E-01       5    8    1         0.3729434611E+01      0.1027280851E+02
          0                 2           2             5    8     1      -0.6680043858E-02       5    8    1        -0.3729355948E+00      0.1027207854E+01
          0                 3           2             5    8     1       0.4548873501E-03       5    8    1         0.2610557848E-01      0.7189999493E-01
          0                 4           1             5    8     1      -0.1810038850E-04       5    8    1        -0.1067719290E-02      0.2940392089E-02

    ------------------------------------------------
       NWT REQUIRED            4 OUTER ITERATIONS 
       AND A TOTAL OF          7 INNER ITERATIONS.
    ------------------------------------------------

 NO OUTPUT CONTROL FOR STRESS PERIOD   22   TIME STEP    3
 
 SOLVING FOR HEAD 
                                                   Max.-Head-Change                         Max.-Flux-Residual
  Residual-Control   Outer-Iter.   Inner-Iter.     Column Row Layer    Maximum-Head-Change  Column Row Layer    Maximum-Flux-Residual          L2-NORM 
          0                 1           2             5    6     1       0.6583232574E-01       5    8    1         0.3568691702E+01      0.9968930268E+01
          0                 2           2             5    6     1      -0.6403579156E-02       5    8    1        -0.3568618264E+00      0.9968277413E+00
          0                 3           2             5    6     1       0.4360611072E-03       5    8    1         0.2498040927E-01      0.6977389235E-01
          0                 4           1             5    6     1      -0.1735123640E-04       5    8    1        -0.1021699835E-02      0.2853475346E-02

    ------------------------------------------------
       NWT REQUIRED            4 OUTER ITERATIONS 
       AND A TOTAL OF          7 INNER ITERATIONS.
    ------------------------------------------------

 NO OUTPUT CONTROL FOR STRESS PERIOD   22   TIME STEP    4
 
 SOLVING FOR HEAD 
                                                   Max.-Head-Change                         Max.-Flux-Residual
  Residual-Control   Outer-Iter.   Inner-Iter.     Column Row Layer    Maximum-Head-Change  Column Row Layer    Maximum-Flux-Residual          L2-NORM 
          0                 1           2             5    7     1       0.6363419241E-01       5    6    1         0.3421363014E+01      0.9680680439E+01
          0                 2           2             5    7     1      -0.6189817058E-02       5    6    1        -0.3421291272E+00      0.9680094070E+00
          0                 3           2             5    7     1       0.4215041503E-03       5    6    1         0.2394911825E-01      0.6775706420E-01
          0                 4           1             5    7     1      -0.1677204452E-04       5    6    1        -0.9795199794E-03      0.2771015295E-02

    ------------------------------------------------
       NWT REQUIRED            4 OUTER ITERATIONS 
       AND A TOTAL OF          7 INNER ITERATIONS.
    ------------------------------------------------

 NO OUTPUT CONTROL FOR STRESS PERIOD   22   TIME STEP    5
 
 SOLVING FOR HEAD 
                                                   Max.-Head-Change                         Max.-Flux-Residual
  Residual-Control   Outer-Iter.   Inner-Iter.     Column Row Layer    Maximum-Head-Change  Column Row Layer    Maximum-Flux-Residual          L2-NORM 
          0                 1           2             5    7     1       0.6221719410E-01       5    7    1         0.3307095154E+01      0.9406952859E+01
          0                 2           2             5    7     1      -0.6051989706E-02       5    7    1        -0.3307063915E+00      0.9406428920E+00
          0                 3           2             5    7     1       0.4121185409E-03       5    7    1         0.2314948809E-01      0.6584177480E-01
          0                 4           1             5    7     1      -0.1639858256E-04       5    7    1        -0.9468152366E-03      0.2692735201E-02

    ------------------------------------------------
       NWT REQUIRED            4 OUTER ITERATIONS 
       AND A TOTAL OF          7 INNER ITERATIONS.
    ------------------------------------------------

 NO OUTPUT CONTROL FOR STRESS PERIOD   22   TIME STEP    6
 
 SOLVING FOR HEAD 
                                                   Max.-Head-Change                         Max.-Flux-Residual
  Residual-Control   Outer-Iter.   Inner-Iter.     Column Row Layer    Maximum-Head-Change  Column Row Layer    Maximum-Flux-Residual          L2-NORM 
          0                 1           2             5    7     1       0.6082714725E-01       5    7    1         0.3233446490E+01      0.9146737212E+01
          0                 2           2             5    7     1      -0.5916782999E-02       5    7    1        -0.3233419944E+00      0.9146267639E+00
          0                 3           2             5    7     1       0.4029113976E-03       5    7    1         0.2263397562E-01      0.6402100601E-01
          0                 4           1             5    7     1      -0.1603222224E-04       5    7    1        -0.9257307813E-03      0.2618289240E-02

    ------------------------------------------------
       NWT REQUIRED            4 OUTER ITERATIONS 
       AND A TOTAL OF          7 INNER ITERATIONS.
    ------------------------------------------------

 NO OUTPUT CONTROL FOR STRESS PERIOD   22   TIME STEP    7
 
 SOLVING FOR HEAD 
                                                   Max.-Head-Change                         Max.-Flux-Residual
  Residual-Control   Outer-Iter.   Inner-Iter.     Column Row Layer    Maximum-Head-Change  Column Row Layer    Maximum-Flux-Residual          L2-NORM 
          0                 1           2             5    7     1       0.5946512526E-01       5    7    1         0.3161211486E+01      0.8899108770E+01
          0                 2           2             5    7     1      -0.5784301478E-02       5    7    1        -0.3161189042E+00      0.8898687132E+00
          0                 3           2             5    7     1       0.3938898376E-03       5    7    1         0.2212835521E-01      0.6228821766E-01
          0                 4           1             5    7     1      -0.1567324609E-04       5    7    1        -0.9050508836E-03      0.2547443606E-02

    ------------------------------------------------
       NWT REQUIRED            4 OUTER ITERATIONS 
       AND A TOTAL OF          7 INNER ITERATIONS.
    ------------------------------------------------

 NO OUTPUT CONTROL FOR STRESS PERIOD   22   TIME STEP    8
 
 SOLVING FOR HEAD 
                                                   Max.-Head-Change                         Max.-Flux-Residual
  Residual-Control   Outer-Iter.   Inner-Iter.     Column Row Layer    Maximum-Head-Change  Column Row Layer    Maximum-Flux-Residual          L2-NORM 
          0                 1           2             4    7     1       0.5886470841E-01       5    7    1         0.3090429541E+01      0.8663212967E+01
          0                 2           2             4    7     1      -0.5725924112E-02       5    7    1        -0.3090410682E+00      0.8662834619E+00
          0                 3           2             4    7     1       0.3899142932E-03       5    7    1         0.2163290310E-01      0.6063757030E-01
          0                 4           1             4    7     1      -0.1551505398E-04       5    7    1        -0.8847868810E-03      0.2479965678E-02

    ------------------------------------------------
       NWT REQUIRED            4 OUTER ITERATIONS 
       AND A TOTAL OF          7 INNER ITERATIONS.
    ------------------------------------------------

 NO OUTPUT CONTROL FOR STRESS PERIOD   22   TIME STEP    9
 
 SOLVING FOR HEAD 
                                                   Max.-Head-Change                         Max.-Flux-Residual
  Residual-Control   Outer-Iter.   Inner-Iter.     Column Row Layer    Maximum-Head-Change  Column Row Layer    Maximum-Flux-Residual          L2-NORM 
          0                 1           2             4    7     1       0.5834502672E-01       4    7    1         0.3058438088E+01      0.8438270403E+01
          0                 2           2             4    7     1      -0.5675378341E-02       4    7    1        -0.3058437683E+00      0.8437930033E+00
          0                 3           2             4    7     1       0.3864722642E-03       4    7    1         0.2140907455E-01      0.5906342721E-01
          0                 4           1             4    7     1      -0.1537809266E-04       4    7    1        -0.8756323648E-03      0.2415542094E-02

    ------------------------------------------------
       NWT REQUIRED            4 OUTER ITERATIONS 
       AND A TOTAL OF          7 INNER ITERATIONS.
    ------------------------------------------------

 NO OUTPUT CONTROL FOR STRESS PERIOD   22   TIME STEP   10
 
 SOLVING FOR HEAD 
                                                   Max.-Head-Change                         Max.-Flux-Residual
  Residual-Control   Outer-Iter.   Inner-Iter.     Column Row Layer    Maximum-Head-Change  Column Row Layer    Maximum-Flux-Residual          L2-NORM 
          0                 1           2             4    7     1       0.5779789425E-01       4    7    1         0.3031435624E+01      0.8223551642E+01
          0                 2           2             4    7     1      -0.5622161785E-02       4    7    1        -0.3031438201E+00      0.8223246462E+00
          0                 3           2             4    7     1       0.3828483699E-03       4    7    1         0.2122007527E-01      0.5756095676E-01
          0                 4           1             4    7     1      -0.1523389465E-04       4    7    1        -0.8679022931E-03      0.2354106842E-02

    ------------------------------------------------
       NWT REQUIRED            4 OUTER ITERATIONS 
       AND A TOTAL OF          7 INNER ITERATIONS.
    ------------------------------------------------

 NO OUTPUT CONTROL FOR STRESS PERIOD   22   TIME STEP   11
 
 SOLVING FOR HEAD 
                                                   Max.-Head-Change                         Max.-Flux-Residual
  Residual-Control   Outer-Iter.   Inner-Iter.     Column Row Layer    Maximum-Head-Change  Column Row Layer    Maximum-Flux-Residual          L2-NORM 
          0                 1           2             4    7     1       0.5722614002E-01       4    7    1         0.3003009865E+01      0.8018400448E+01
          0                 2           2             5    8     1       0.8505442515E-02       5    8    1         0.4753000868E+00      0.8957468347E+00
          0                 3           2             5    8     1       0.2100014253E-02       5    8    1         0.1154657168E+00      0.1271554876E+00
          0                 4           1             5    8     1       0.5185000940E-03       5    8    1         0.2862556219E-01      0.2870488203E-01
          0                 5           1             5    8     1       0.1280193204E-03       5    8    1         0.7062574822E-02      0.7063066149E-02
          0                 6           1             5    8     1       0.3160837911E-04       5    8    1         0.1743715218E-02      0.1743851095E-02

    ------------------------------------------------
       NWT REQUIRED            6 OUTER ITERATIONS 
       AND A TOTAL OF          9 INNER ITERATIONS.
    ------------------------------------------------

 NO OUTPUT CONTROL FOR STRESS PERIOD   22   TIME STEP   12
 
 SOLVING FOR HEAD 
                                                   Max.-Head-Change                         Max.-Flux-Residual
  Residual-Control   Outer-Iter.   Inner-Iter.     Column Row Layer    Maximum-Head-Change  Column Row Layer    Maximum-Flux-Residual          L2-NORM 
          0                 1           2             5    8     1       0.8862039222E-01       5    8    1         0.4831178667E+01      0.8858193897E+01
          0                 2           2             5    8     1       0.1720530432E-01       5    8    1         0.9554559434E+00      0.1210010051E+01
          0                 3           2             5    8     1      -0.1672766680E-02       5    8    1        -0.9534502575E-01      0.1087007512E+00
          0                 4           1             5    8     1       0.1138272057E-03       5    8    1         0.6658963989E-02      0.7000416658E-02
          0                 5           1             5    8     1      -0.4523877118E-05       5    8    1        -0.2716145582E-03      0.2732254548E-03

    ------------------------------------------------
       NWT REQUIRED            5 OUTER ITERATIONS 
       AND A TOTAL OF          8 INNER ITERATIONS.
    ------------------------------------------------

 NO OUTPUT CONTROL FOR STRESS PERIOD   22   TIME STEP   13
 
 SOLVING FOR HEAD 
                                                   Max.-Head-Change                         Max.-Flux-Residual
  Residual-Control   Outer-Iter.   Inner-Iter.     Column Row Layer    Maximum-Head-Change  Column Row Layer    Maximum-Flux-Residual          L2-NORM 
          0                 1           2             5    8     1       0.8305034466E-01       5    8    1         0.4521198845E+01      0.8575066080E+01
          0                 2           2             5    8     1      -0.8074464893E-02       5    8    1        -0.4518904840E+00      0.8573630487E+00
          0                 3           2             5    8     1       0.5494453581E-03       5    8    1         0.3160925578E-01      0.6000206596E-01
          0                 4           1             5    8     1      -0.2183681563E-04       5    8    1        -0.1291254025E-02      0.2453174308E-02

    ------------------------------------------------
       NWT REQUIRED            4 OUTER ITERATIONS 
       AND A TOTAL OF          7 INNER ITERATIONS.
    ------------------------------------------------

 NO OUTPUT CONTROL FOR STRESS PERIOD   22   TIME STEP   14
 
 SOLVING FOR HEAD 
                                                   Max.-Head-Change                         Max.-Flux-Residual
  Residual-Control   Outer-Iter.   Inner-Iter.     Column Row Layer    Maximum-Head-Change  Column Row Layer    Maximum-Flux-Residual          L2-NORM 
          0                 1           2             5    8     1       0.7934546656E-01       5    8    1         0.4315723307E+01      0.8344016652E+01
          0                 2           2             5    8     1      -0.7714254737E-02       5    8    1        -0.4313525929E+00      0.8342675597E+00
          0                 3           2             5    8     1       0.5249341197E-03       5    8    1         0.3017263838E-01      0.5838626026E-01
          0                 4           1             5    8     1      -0.2086265584E-04       5    8    1        -0.1232566144E-02      0.2387153267E-02

    ------------------------------------------------
       NWT REQUIRED            4 OUTER ITERATIONS 
       AND A TOTAL OF          7 INNER ITERATIONS.
    ------------------------------------------------

 NO OUTPUT CONTROL FOR STRESS PERIOD   22   TIME STEP   15
 
 SOLVING FOR HEAD 
                                                   Max.-Head-Change                         Max.-Flux-Residual
  Residual-Control   Outer-Iter.   Inner-Iter.     Column Row Layer    Maximum-Head-Change  Column Row Layer    Maximum-Flux-Residual          L2-NORM 
          0                 1           2             5    8     1       0.7587161430E-01       5    8    1         0.4123202107E+01      0.8125258320E+01
          0                 2           2             5    8     1      -0.7376507077E-02       5    8    1        -0.4121095894E+00      0.8124004744E+00
          0                 3           2             5    8     1       0.5019513799E-03       5    8    1         0.2882659803E-01      0.5685636875E-01
          0                 4           1             5    8     1      -0.1994924428E-04       5    8    1        -0.1177578522E-02      0.2324638343E-02

    ------------------------------------------------
       NWT REQUIRED            4 OUTER ITERATIONS 
       AND A TOTAL OF          7 INNER ITERATIONS.
    ------------------------------------------------

 NO OUTPUT CONTROL FOR STRESS PERIOD   22   TIME STEP   16
 
 SOLVING FOR HEAD 
                                                   Max.-Head-Change                         Max.-Flux-Residual
  Residual-Control   Outer-Iter.   Inner-Iter.     Column Row Layer    Maximum-Head-Change  Column Row Layer    Maximum-Flux-Residual          L2-NORM 
          0                 1           2             5    8     1       0.7261191880E-01       5    8    1         0.3942682501E+01      0.7917797455E+01
          0                 2           2             5    8     1      -0.7059581654E-02       5    8    1        -0.3940662324E+00      0.7916624699E+00
          0                 3           2             5    8     1       0.4803855255E-03       5    8    1         0.2756447271E-01      0.5540545822E-01
          0                 4           1             5    8     1      -0.1909214393E-04       5    8    1        -0.1126018983E-02      0.2265374385E-02

    ------------------------------------------------
       NWT REQUIRED            4 OUTER ITERATIONS 
       AND A TOTAL OF          7 INNER ITERATIONS.
    ------------------------------------------------

 NO OUTPUT CONTROL FOR STRESS PERIOD   22   TIME STEP   17
 
 SOLVING FOR HEAD 
                                                   Max.-Head-Change                         Max.-Flux-Residual
  Residual-Control   Outer-Iter.   Inner-Iter.     Column Row Layer    Maximum-Head-Change  Column Row Layer    Maximum-Flux-Residual          L2-NORM 
          0                 1           2             5    8     1       0.6955088042E-01       5    8    1         0.3773289874E+01      0.7720740360E+01
          0                 2           2             5    8     1      -0.6761971378E-02       5    8    1        -0.3771350923E+00      0.7719641837E+00
          0                 3           2             5    8     1       0.4601340039E-03       5    8    1         0.2638014667E-01      0.5402727551E-01
          0                 4           1             5    8     1      -0.1828727962E-04       5    8    1        -0.1077637686E-02      0.2209044747E-02

    ------------------------------------------------
       NWT REQUIRED            4 OUTER ITERATIONS 
       AND A TOTAL OF          7 INNER ITERATIONS.
    ------------------------------------------------

 NO OUTPUT CONTROL FOR STRESS PERIOD   22   TIME STEP   18
 
 SOLVING FOR HEAD 
                                                   Max.-Head-Change                         Max.-Flux-Residual
  Residual-Control   Outer-Iter.   Inner-Iter.     Column Row Layer    Maximum-Head-Change  Column Row Layer    Maximum-Flux-Residual          L2-NORM 
          0                 1           2             5    8     1       0.6667439399E-01       5    8    1         0.3614228411E+01      0.7533281714E+01
          0                 2           2             5    8     1      -0.6482304756E-02       5    8    1        -0.3612366171E+00      0.7532251653E+00
          0                 3           2             5    8     1       0.4411034912E-03       5    8    1         0.2526805535E-01      0.5271615179E-01
          0                 4           1             5    8     1      -0.1753094264E-04       5    8    1        -0.1032207329E-02      0.2155441787E-02

    ------------------------------------------------
       NWT REQUIRED            4 OUTER ITERATIONS 
       AND A TOTAL OF          7 INNER ITERATIONS.
    ------------------------------------------------

 NO OUTPUT CONTROL FOR STRESS PERIOD   22   TIME STEP   19
 
 SOLVING FOR HEAD 
                                                   Max.-Head-Change                         Max.-Flux-Residual
  Residual-Control   Outer-Iter.   Inner-Iter.     Column Row Layer    Maximum-Head-Change  Column Row Layer    Maximum-Flux-Residual          L2-NORM 
          0                 1           2             5    8     1       0.6396935933E-01       5    8    1         0.3464759005E+01      0.7354689027E+01
          0                 2           2             5    8     1      -0.6219308023E-02       5    8    1        -0.3462969238E+00      0.7353722382E+00
          0                 3           2             5    8     1       0.4232073123E-03       5    8    1         0.2422303067E-01      0.5146700609E-01
          0                 4           1             5    8     1      -0.1681968800E-04       5    8    1        -0.9895167714E-03      0.2104366930E-02

    ------------------------------------------------
       NWT REQUIRED            4 OUTER ITERATIONS 
       AND A TOTAL OF          7 INNER ITERATIONS.
    ------------------------------------------------

 NO OUTPUT CONTROL FOR STRESS PERIOD   22   TIME STEP   20
 
 SOLVING FOR HEAD 
                                                   Max.-Head-Change                         Max.-Flux-Residual
  Residual-Control   Outer-Iter.   Inner-Iter.     Column Row Layer    Maximum-Head-Change  Column Row Layer    Maximum-Flux-Residual          L2-NORM 
          0                 1           2             5    8     1       0.6142329998E-01       5    8    1         0.3324179048E+01      0.7184303740E+01
          0                 2           2             5    8     1       0.1299765379E-01       5    8    1         0.7239052466E+00      0.9641904515E+00
          0                 3           2             5    8     1       0.3208900171E-02       5    8    1         0.1766183595E+00      0.1822129688E+00
          0                 4           1             5    8     1       0.7922255617E-03       5    8    1         0.4373341002E-01      0.4376809598E-01
          0                 5           1             5    8     1       0.1955877518E-03       5    8    1         0.1079172320E-01      0.1079221710E-01
          0                 6           1             5    8     1       0.4828747624E-04       5    8    1         0.2664509033E-02      0.2664559994E-02

    ------------------------------------------------
       NWT REQUIRED            6 OUTER ITERATIONS 
       AND A TOTAL OF          9 INNER ITERATIONS.
    ------------------------------------------------

 NO OUTPUT CONTROL FOR STRESS PERIOD   22   TIME STEP   21
 
 SOLVING FOR HEAD 
                                                   Max.-Head-Change                         Max.-Flux-Residual
  Residual-Control   Outer-Iter.   Inner-Iter.     Column Row Layer    Maximum-Head-Change  Column Row Layer    Maximum-Flux-Residual          L2-NORM 
          0                 1           2             4    8     1       0.9095294196E-01       4    8    1         0.4865823909E+01      0.8154102084E+01
          0                 2           2             5    8     1       0.1261216887E-01       5    8    1         0.7063284057E+00      0.1032838226E+01
          0                 3           2             5    8     1      -0.1226207748E-02       5    8    1        -0.7030843707E-01      0.8805749481E-01
          0                 4           1             5    8     1       0.8344055134E-04       5    8    1         0.4898440216E-02      0.5368064420E-02

    ------------------------------------------------
       NWT REQUIRED            4 OUTER ITERATIONS 
       AND A TOTAL OF          7 INNER ITERATIONS.
    ------------------------------------------------

 NO OUTPUT CONTROL FOR STRESS PERIOD   22   TIME STEP   22
 
 SOLVING FOR HEAD 
                                                   Max.-Head-Change                         Max.-Flux-Residual
  Residual-Control   Outer-Iter.   Inner-Iter.     Column Row Layer    Maximum-Head-Change  Column Row Layer    Maximum-Flux-Residual          L2-NORM 
          0                 1           2             5    7     1       0.9043726015E-01       5    7    1         0.4883712912E+01      0.9008030410E+01
          0                 2           2             5    7     1      -0.8792709240E-02       5    7    1        -0.4881288100E+00      0.9004765268E+00
          0                 3           2             5    7     1       0.5983149795E-03       5    7    1         0.3414381623E-01      0.6300115641E-01
          0                 4           1             5    7     1      -0.2377880595E-04       5    7    1        -0.1394778698E-02      0.2574560843E-02

    ------------------------------------------------
       NWT REQUIRED            4 OUTER ITERATIONS 
       AND A TOTAL OF          7 INNER ITERATIONS.
    ------------------------------------------------

 NO OUTPUT CONTROL FOR STRESS PERIOD   22   TIME STEP   23
 
 SOLVING FOR HEAD 
                                                   Max.-Head-Change                         Max.-Flux-Residual
  Residual-Control   Outer-Iter.   Inner-Iter.     Column Row Layer    Maximum-Head-Change  Column Row Layer    Maximum-Flux-Residual          L2-NORM 
          0                 1           2             5    7     1       0.8744449462E-01       5    7    1         0.4717965648E+01      0.8802418943E+01
          0                 2           2             5    7     1      -0.8501729279E-02       5    7    1        -0.4715614332E+00      0.8799264376E+00
          0                 3           2             5    7     1       0.5785147728E-03       5    7    1         0.3298494024E-01      0.6156376682E-01
          0                 4           1             5    7     1      -0.2299188359E-04       5    7    1        -0.1347437006E-02      0.2515847168E-02

    ------------------------------------------------
       NWT REQUIRED            4 OUTER ITERATIONS 
       AND A TOTAL OF          7 INNER ITERATIONS.
    ------------------------------------------------

 NO OUTPUT CONTROL FOR STRESS PERIOD   22   TIME STEP   24
 
 SOLVING FOR HEAD 
                                                   Max.-Head-Change                         Max.-Flux-Residual
  Residual-Control   Outer-Iter.   Inner-Iter.     Column Row Layer    Maximum-Head-Change  Column Row Layer    Maximum-Flux-Residual          L2-NORM 
          0                 1           2             5    7     1       0.8498102945E-01       5    7    1         0.4544524911E+01      0.9388581307E+01
          0                 2           2             5    7     1      -0.8262121954E-02       5    7    1        -0.4542212025E+00      0.9384808491E+00
          0                 3           2             5    7     1       0.5622049040E-03       5    7    1         0.3177183685E-01      0.6565662860E-01
          0                 4           1             5    7     1      -0.2234331778E-04       5    7    1        -0.1297867379E-02      0.2682847466E-02

    ------------------------------------------------
       NWT REQUIRED            4 OUTER ITERATIONS 
       AND A TOTAL OF          7 INNER ITERATIONS.
    ------------------------------------------------

 NO OUTPUT CONTROL FOR STRESS PERIOD   22   TIME STEP   25
 
 SOLVING FOR HEAD 
                                                   Max.-Head-Change                         Max.-Flux-Residual
  Residual-Control   Outer-Iter.   Inner-Iter.     Column Row Layer    Maximum-Head-Change  Column Row Layer    Maximum-Flux-Residual          L2-NORM 
          0                 1           2             5    7     1       0.8263135257E-01       5    7    1         0.4416501820E+01      0.9172199848E+01
          0                 2           2             5    7     1      -0.8033673820E-02       5    7    1        -0.4414249198E+00      0.9168550622E+00
          0                 3           2             5    7     1       0.5466599484E-03       5    7    1         0.3087675440E-01      0.6414403749E-01
          0                 4           1             5    7     1      -0.2172552511E-04       5    7    1        -0.1261302748E-02      0.2621062646E-02

    ------------------------------------------------
       NWT REQUIRED            4 OUTER ITERATIONS 
       AND A TOTAL OF          7 INNER ITERATIONS.
    ------------------------------------------------

 NO OUTPUT CONTROL FOR STRESS PERIOD   22   TIME STEP   26
 
 SOLVING FOR HEAD 
                                                   Max.-Head-Change                         Max.-Flux-Residual
  Residual-Control   Outer-Iter.   Inner-Iter.     Column Row Layer    Maximum-Head-Change  Column Row Layer    Maximum-Flux-Residual          L2-NORM 
          0                 1           2             5    7     1       0.8038440292E-01       5    7    1         0.4294381840E+01      0.8959951973E+01
          0                 2           2             5    7     1      -0.7812533385E-02       5    7    1        -0.4292187378E+00      0.7907749405E+00
          0                 3           2             5    7     1       0.5314551810E-03       5    7    1         0.3002295583E-01      0.5807858233E-01
          0                 4           1             4    8     1      -0.8628075349E-04       4    8    1        -0.4792386803E-02      0.5298436571E-02

    ------------------------------------------------
       NWT REQUIRED            4 OUTER ITERATIONS 
       AND A TOTAL OF          7 INNER ITERATIONS.
    ------------------------------------------------

 NO OUTPUT CONTROL FOR STRESS PERIOD   22   TIME STEP   27
 
 SOLVING FOR HEAD 
                                                   Max.-Head-Change                         Max.-Flux-Residual
  Residual-Control   Outer-Iter.   Inner-Iter.     Column Row Layer    Maximum-Head-Change  Column Row Layer    Maximum-Flux-Residual          L2-NORM 
          0                 1           2             5    7     1       0.7835371301E-01       5    7    1         0.4177752488E+01      0.8891141562E+01
          0                 2           2             4    8     1       0.1981093255E-01       4    8    1         0.1068209216E+01      0.1546842993E+01
          0                 3           2             4    8     1       0.5076746725E-02       4    8    1         0.2725416066E+00      0.3522963237E+00
          0                 4           2             4    8     1       0.1301029232E-02       4    8    1         0.6991550913E-01      0.8964898263E-01
          0                 5           2             4    8     1       0.3334329872E-03       4    8    1         0.1791471616E-01      0.2299370808E-01
          0                 6           1             4    8     1       0.8545735790E-04       4    8    1         0.4591428836E-02      0.5900619417E-02

    ------------------------------------------------
       NWT REQUIRED            6 OUTER ITERATIONS 
       AND A TOTAL OF         11 INNER ITERATIONS.
    ------------------------------------------------

 NO OUTPUT CONTROL FOR STRESS PERIOD   22   TIME STEP   28
 
 SOLVING FOR HEAD 
                                                   Max.-Head-Change                         Max.-Flux-Residual
  Residual-Control   Outer-Iter.   Inner-Iter.     Column Row Layer    Maximum-Head-Change  Column Row Layer    Maximum-Flux-Residual          L2-NORM 
          0                 1           2             4    7     1       0.9710821204E-01       4    7    1         0.5147029484E+01      0.9586474759E+01
          0                 2           2             5    7     1       0.6428760270E-02       5    7    1         0.3623799254E+00      0.6757731087E+00
          0                 3           2             5    7     1       0.1577042999E-02       5    7    1         0.8704992263E-01      0.9888363464E-01
          0                 4           2             5    7     1       0.3868442557E-03       5    7    1         0.2146982062E-01      0.2241855695E-01
          0                 5           1             5    7     1       0.9488562883E-04       5    7    1         0.5261986969E-02      0.5486983226E-02

    ------------------------------------------------
       NWT REQUIRED            5 OUTER ITERATIONS 
       AND A TOTAL OF          9 INNER ITERATIONS.
    ------------------------------------------------

 NO OUTPUT CONTROL FOR STRESS PERIOD   22   TIME STEP   29
 
 SOLVING FOR HEAD 
                                                   Max.-Head-Change                         Max.-Flux-Residual
  Residual-Control   Outer-Iter.   Inner-Iter.     Column Row Layer    Maximum-Head-Change  Column Row Layer    Maximum-Flux-Residual          L2-NORM 
          0                 1           2             4    7     1       0.9514495601E-01       4    7    1         0.5042280399E+01      0.9386418883E+01
          0                 2           2             5    7     1       0.1889724336E-01       5    7    1         0.1041518071E+01      0.1574304161E+01
          0                 3           2             5    6     1       0.4052376338E-02       5    6    1         0.2245240774E+00      0.2425312622E+00
          0                 4           2             5    6     1       0.1000789939E-02       5    6    1         0.5514112999E-01      0.5543327405E-01
          0                 5           2             5    6     1       0.2471593004E-03       5    6    1         0.1363860975E-01      0.1363977582E-01
          0                 6           1             5    6     1       0.6103949070E-04       5    6    1         0.3367370957E-02      0.3367446808E-02

    ------------------------------------------------
       NWT REQUIRED            6 OUTER ITERATIONS 
       AND A TOTAL OF         11 INNER ITERATIONS.
    ------------------------------------------------

 NO OUTPUT CONTROL FOR STRESS PERIOD   22   TIME STEP   30



 STREAM LISTING     PERIOD     22   STEP       30

 LAYER ROW COL. STREAM  RCH.  FLOW INTO     FLOW TO   FLOW OUT OF   OVRLND.     DIRECT     STREAM       STREAM     STREAM     STREAM   STREAMBED  STREAMBED
                SEG.NO.  NO.  STRM. RCH.    AQUIFER    STRM. RCH.    RUNOFF     PRECIP       ET          HEAD       DEPTH      WIDTH   CONDCTNC.   GRADIENT

   1    1    1     1     1    2.4431E+01  2.4251E-01   2.4189E+01  0.000E+00  0.000E+00  0.000E+00  1.09422E+03  1.170E+00  1.292E+01  5.816E-02  1.390E+00
   1    2    2     1     2    2.4189E+01  3.7499E-01   2.3814E+01  0.000E+00  0.000E+00  0.000E+00  1.08922E+03  1.165E+00  1.286E+01  9.003E-02  1.388E+00
   1    3    3     1     3    2.3814E+01  3.1923E-01   2.3495E+01  0.000E+00  0.000E+00  0.000E+00  1.08358E+03  1.160E+00  1.279E+01  7.674E-02  1.387E+00
   1    3    4     1     4    2.3495E+01  2.9350E-01   2.3201E+01  0.000E+00  0.000E+00  0.000E+00  1.07856E+03  1.155E+00  1.273E+01  7.064E-02  1.385E+00
   1    4    5     2     1    2.1201E+01  3.1894E-01   2.0882E+01  0.000E+00  0.000E+00  0.000E+00  1.07302E+03  1.089E+00  1.200E+01  7.800E-02  1.363E+00
   1    5    6     2     2    2.0882E+01  2.4481E-01   2.0637E+01  0.000E+00  0.000E+00  0.000E+00  1.06759E+03  1.080E+00  1.200E+01  6.000E-02  1.360E+00
   1    6    6     2     3    2.0637E+01  2.4435E-01   2.0393E+01  0.000E+00  0.000E+00  0.000E+00  1.06286E+03  1.072E+00  1.200E+01  6.000E-02  1.357E+00
   1    7    6     2     4    2.0393E+01  2.4389E-01   2.0149E+01  0.000E+00  0.000E+00  0.000E+00  1.05814E+03  1.065E+00  1.200E+01  6.000E-02  1.355E+00
   1    8    6     2     5    2.0149E+01  2.4343E-01   1.9906E+01  0.000E+00  0.000E+00  0.000E+00  1.05342E+03  1.057E+00  1.200E+01  6.000E-02  1.352E+00
   1    3    5     3     1    2.0000E+00  2.8252E-01   1.7175E+00  0.000E+00  0.000E+00  0.000E+00  1.07555E+03  1.909E+00  9.636E+00  7.227E-02  1.955E+00
   1    3    6     3     2    1.7175E+00  2.4905E-01   1.4684E+00  0.000E+00  0.000E+00  0.000E+00  1.07264E+03  1.727E+00  8.909E+00  6.682E-02  1.864E+00
   1    3    7     3     3    1.4684E+00  1.9718E-01   1.2712E+00  0.000E+00  0.000E+00  0.000E+00  1.06987E+03  1.555E+00  8.218E+00  5.547E-02  1.777E+00
   1    4    8     3     4    1.2712E+00  2.2567E-01   1.0456E+00  0.000E+00  0.000E+00  0.000E+00  1.06682E+03  1.364E+00  7.455E+00  6.709E-02  1.682E+00
   1    5    8     3     5    1.0456E+00  1.5790E-01   8.8768E-01  0.000E+00  0.000E+00  0.000E+00  1.06362E+03  1.164E+00  6.655E+00  4.991E-02  1.582E+00
   1    6    8     3     6    8.8768E-01  5.5980E-02   8.3170E-01  0.000E+00  0.000E+00  0.000E+00  1.06158E+03  1.036E+00  6.145E+00  1.844E-02  1.518E+00
   1    5   10     4     1    1.0000E+01  9.0919E-02   9.9091E+00  0.000E+00  0.000E+00  0.000E+00  1.07836E+03  6.368E-01  1.000E+01  2.500E-02  1.212E+00
   1    5    9     4     2    9.9091E+00  1.8158E-01   9.7275E+00  0.000E+00  0.000E+00  0.000E+00  1.07154E+03  6.315E-01  1.000E+01  5.000E-02  1.211E+00
   1    6    8     4     3    9.7275E+00  1.2689E-01   9.6006E+00  0.000E+00  0.000E+00  0.000E+00  1.06381E+03  6.256E-01  1.000E+01  3.500E-02  1.209E+00
   1    6    8     5     1    1.0432E+01  2.2686E-01   1.0205E+01  0.000E+00  0.000E+00  0.000E+00  1.05868E+03  6.790E-01  1.542E+01  6.166E-02  1.226E+00
   1    7    7     5     2    1.0205E+01  2.7894E-01   9.9265E+00  0.000E+00  0.000E+00  0.000E+00  1.05417E+03  6.732E-01  1.519E+01  7.594E-02  1.224E+00
   1    8    7     5     3    9.9265E+00  1.9221E-01   9.7343E+00  0.000E+00  0.000E+00  0.000E+00  1.04992E+03  6.676E-01  1.497E+01  5.241E-02  1.223E+00
   1    8    6     5     4    9.7343E+00  1.3577E-01   9.5985E+00  0.000E+00  0.000E+00  0.000E+00  1.04691E+03  6.637E-01  1.482E+01  3.706E-02  1.221E+00
   1    9    6     6     1    2.9504E+01  2.6070E-01   2.9244E+01  0.000E+00  0.000E+00  0.000E+00  1.04407E+03  1.345E+00  1.200E+01  6.000E-02  1.448E+00
   1   10    7     6     2    2.9244E+01  2.6027E-01   2.8983E+01  0.000E+00  0.000E+00  0.000E+00  1.03952E+03  1.338E+00  1.200E+01  6.000E-02  1.446E+00
   1   11    7     6     3    2.8983E+01  2.5984E-01   2.8723E+01  0.000E+00  0.000E+00  0.000E+00  1.03497E+03  1.331E+00  1.200E+01  6.000E-02  1.444E+00
   1   12    7     6     4    2.8723E+01  2.5941E-01   2.8464E+01  0.000E+00  0.000E+00  0.000E+00  1.03041E+03  1.324E+00  1.200E+01  6.000E-02  1.441E+00
   1   13    7     6     5    2.8464E+01  4.4397E-03   2.8460E+01  0.000E+00  0.000E+00  0.000E+00  1.02723E+03  1.320E+00  1.200E+01  2.400E-02  6.166E-02
   1   14    9     7     1    1.5000E+02  1.3344E+00   1.4867E+02  0.000E+00  0.000E+00  0.000E+00  1.03987E+03  2.288E+00  5.529E+01  5.593E-01  7.953E-01
   1   13    8     7     2    1.4867E+02  1.8387E+00   1.4683E+02  0.000E+00  0.000E+00  0.000E+00  1.03478E+03  2.279E+00  5.526E+01  6.148E-01  9.970E-01
   1   13    7     7     3    1.4683E+02  1.4776E+00   1.4535E+02  0.000E+00  0.000E+00  0.000E+00  1.02969E+03  2.270E+00  5.522E+01  5.585E-01  8.819E-01
   1   13    6     8     1    1.7381E+02  9.4309E-01   1.7287E+02  0.000E+00  0.000E+00  0.000E+00  1.02485E+03  2.974E+00  4.312E+01  4.394E-01  7.154E-01
   1   13    5     8     2    1.7287E+02  1.9285E-01   1.7267E+02  0.000E+00  0.000E+00  0.000E+00  1.01860E+03  2.970E+00  4.307E+01  4.389E-01  1.465E-01
   1   13    4     8     3    1.7267E+02 -2.3877E+00   1.7506E+02  0.000E+00  0.000E+00  0.000E+00  1.01235E+03  2.977E+00  4.317E+01  4.399E+00 -1.809E-01
   1   13    3     8     4    1.7506E+02 -3.6512E+00   1.7871E+02  0.000E+00  0.000E+00  0.000E+00  1.00612E+03  2.996E+00  4.345E+01  4.428E+00 -2.749E-01
   1   13    2     8     5    1.7871E+02 -2.6113E+00   1.8132E+02  0.000E+00  0.000E+00  0.000E+00  9.99891E+02  3.016E+00  4.374E+01  4.457E+00 -1.953E-01
   1   13    1     8     6    1.8132E+02 -2.0291E+00   1.8335E+02  0.000E+00  0.000E+00  0.000E+00  9.94906E+02  3.031E+00  4.395E+01  2.687E+00 -2.517E-01





UNSATURATED ZONE PACKAGE VOLUMETRIC BUDGET FOR  TIME STEP    30 STRESS PERIOD   22
  ------------------------------------------------------------------------------



     CUMULATIVE VOLUMES      L**3       RATES FOR THIS TIME STEP      L**3/T
     ------------------                 ------------------------

           IN:                                      IN:
           ---                                      ---
        INFILTRATION =   916965257.6918          INFILTRATION =          12.0675

          OUT:                                     OUT:
          ----                                     ----
              UZF ET =   841037673.3843                UZF ET =          12.0675
        UZF RECHARGE =    48201778.3884          UZF RECHARGE =          15.1415

            IN - OUT =    27725805.9191              IN - OUT =         -15.1415

          STORAGE:                                 STORAGE:
          --------                                 --------
      STORAGE CHANGE =    27725809.8239        STORAGE CHANGE =         -15.1415

 PERCENT DISCREPANCY IS DIFFERENCE BETWEEN IN-OUT MINUS CHANGE IN STORAGE
 DIVIDED BY THE AVERAGE OF IN AND OUT TIMES 100

 PERCENT DISCREPANCY =           0.00     PERCENT DISCREPANCY =           0.00






1
  VOLUMETRIC BUDGET FOR AGRICULTURAL FIELDS AT  END OF TIME STEP   30, STRESS PERIOD  22
  ------------------------------------------------------------------------------

     CUMULATIVE VOLUMES      L**3       RATES FOR THIS TIME STEP      L**3/T
     ------------------                 ------------------------

           IN:                                      IN:
           ---                                      ---
               AG WELLS  =   870083328.0000                 AG WELLS  =          11.2200
      DIVERSION SEGMENTS =           0.0000        DIVERSION SEGMENTS =           0.0000
           GW IRRIGATION =           0.0000             GW IRRIGATION =           0.0000
           SW IRRIGATION =           0.0000             SW IRRIGATION =           0.0000
        SYSTEM LOSSES GW =           0.0000          SYSTEM LOSSES GW =           0.0000
        SYSTEM LOSSES SW =           0.0000          SYSTEM LOSSES SW =           0.0000

                TOTAL IN =   870083328.0000                  TOTAL IN =          11.2200

          OUT:                                     OUT:
          ----                                     ----
               AG WELLS  =           0.0000                 AG WELLS  =           0.0000
      DIVERSION SEGMENTS =           0.0000        DIVERSION SEGMENTS =           0.0000
           GW IRRIGATION =   870083328.0000             GW IRRIGATION =          11.2200
           SW IRRIGATION =           0.0000             SW IRRIGATION =           0.0000
        SYSTEM LOSSES GW =           0.0000          SYSTEM LOSSES GW =           0.0000
        SYSTEM LOSSES SW =           0.0000          SYSTEM LOSSES SW =           0.0000

               TOTAL OUT =   870083328.0000                 TOTAL OUT =          11.2200

                IN - OUT =           0.0000                  IN - OUT =           0.0000

     PERCENT DISCREPANCY =           0.00         PERCENT DISCREPANCY =           0.00



1
  VOLUMETRIC BUDGET FOR ENTIRE MODEL AT END OF TIME STEP   30, STRESS PERIOD  22
  ------------------------------------------------------------------------------

     CUMULATIVE VOLUMES      L**3       RATES FOR THIS TIME STEP      L**3/T
     ------------------                 ------------------------

           IN:                                      IN:
           ---                                      ---
             STORAGE     =  1053443584.0000               STORAGE     =          19.0177
       CONSTANT HEAD     =           0.0000         CONSTANT HEAD     =           0.0000
     HEAD DEP BOUNDS     =    15789348.0000       HEAD DEP BOUNDS     =           0.2857
      STREAM LEAKAGE     =   692769984.0000        STREAM LEAKAGE     =          11.7584
        UZF RECHARGE     =    48201800.0000          UZF RECHARGE     =          15.1415
               GW ET     =           0.0000                 GW ET     =           0.0000
     SURFACE LEAKAGE     =           0.0000       SURFACE LEAKAGE     =           0.0000
           AG WELLS      =           0.0000             AG WELLS      =           0.0000

                TOTAL IN =  1810204800.0000                  TOTAL IN =          46.2032

          OUT:                                     OUT:
          ----                                     ----
             STORAGE     =   333688992.0000               STORAGE     =          24.0119
       CONSTANT HEAD     =           0.0000         CONSTANT HEAD     =           0.0000
     HEAD DEP BOUNDS     =    16296947.0000       HEAD DEP BOUNDS     =           0.2911
      STREAM LEAKAGE     =   572523776.0000        STREAM LEAKAGE     =          10.6793
        UZF RECHARGE     =           0.0000          UZF RECHARGE     =           0.0000
               GW ET     =    17607600.0000                 GW ET     =           0.0000
     SURFACE LEAKAGE     =           0.0000       SURFACE LEAKAGE     =           0.0000
           AG WELLS      =   870083328.0000             AG WELLS      =          11.2200

               TOTAL OUT =  1810200576.0000                 TOTAL OUT =          46.2024

                IN - OUT =        4224.0000                  IN - OUT =       8.4305E-04

     PERCENT DISCREPANCY =           0.00         PERCENT DISCREPANCY =           0.00






         TIME SUMMARY AT END OF TIME STEP   30 IN STRESS PERIOD   22
                    SECONDS     MINUTES      HOURS       DAYS        YEARS
                    -----------------------------------------------------------
   TIME STEP LENGTH  87667.      1461.1      24.352      1.0147     2.77799E-03
 STRESS PERIOD TIME 2.63000E+06  43833.      730.56      30.440     8.33397E-02
         TOTAL TIME 5.53166E+07 9.21944E+05  15366.      640.24      1.7529    
1
1
                            STRESS PERIOD NO.   23, LENGTH =   2630000.    
                            -----------------------------------------------

                              NUMBER OF TIME STEPS =    30

                               MULTIPLIER FOR DELT =     1.000

                            INITIAL TIME STEP SIZE =   87666.66    

 REUSING NON-PARAMETER GHB CELLS FROM LAST STRESS PERIOD

      2 GHB CELLS

 REUSING STREAM SEGMENT DATA FROM LAST STRESS PERIOD



            AREAL INFILTRATION RATE
 READING ON UNIT   19 WITH FORMAT: (FREE)              

            1           2           3           4           5           6           7           8           9          10
 ........................................................................................................................
   1   1.0000E-10  2.0000E-10   0.000       0.000       0.000       0.000       0.000       0.000       0.000       0.000    
   2   2.0000E-10  1.0000E-10  2.0000E-10   0.000       0.000      8.0000E-10  8.0000E-10  5.0000E-10   0.000       0.000    
   3    0.000      5.0000E-10  1.0000E-10  1.0000E-10  8.0000E-10  8.0000E-10  5.0000E-10  5.0000E-10   0.000       0.000    
   4   8.0000E-10  5.0000E-10  1.0000E-10  1.0000E-10  1.0000E-10  1.0000E-10  1.0000E-10  1.0000E-10  2.0000E-10   0.000    
   5   8.0000E-10  5.0000E-10  1.0000E-10  1.0000E-10  1.0000E-10  1.0000E-10  1.0000E-10  1.0000E-10  1.0000E-10  1.0000E-10
   6   8.0000E-10  5.0000E-10  5.0000E-10  2.0000E-10  2.0000E-10  1.0000E-10  1.0000E-10  1.0000E-10  1.0000E-10  5.0000E-10
   7   8.0000E-10  5.0000E-10  5.0000E-10  2.0000E-10  2.0000E-10  1.0000E-10  1.0000E-10  2.0000E-10  2.0000E-10   0.000    
   8    0.000      5.0000E-10  5.0000E-10  2.0000E-10  2.0000E-10  1.0000E-10  1.0000E-10  2.0000E-10  5.0000E-10   0.000    
   9    0.000      5.0000E-10  5.0000E-10  2.0000E-10  2.0000E-10  1.0000E-10  1.0000E-10  2.0000E-10  5.0000E-10   0.000    
  10    0.000      5.0000E-10  5.0000E-10  2.0000E-10  2.0000E-10  1.0000E-10  1.0000E-10  2.0000E-10  5.0000E-10  8.0000E-10
  11    0.000      1.0000E-10  1.0000E-10  1.0000E-10  1.0000E-10  1.0000E-10  1.0000E-10  2.0000E-10  5.0000E-10   0.000    
  12   1.0000E-10  1.0000E-10  1.0000E-10  1.0000E-10  1.0000E-10  1.0000E-10  1.0000E-10  1.0000E-10  2.0000E-10   0.000    
  13   1.0000E-10  1.0000E-10  2.0000E-10  2.0000E-10  2.0000E-10  2.0000E-10  2.0000E-10  1.0000E-10  1.0000E-10   0.000    
  14    0.000      2.0000E-10  5.0000E-10  5.0000E-10  5.0000E-10  5.0000E-10  5.0000E-10  2.0000E-10  1.0000E-10   0.000    
  15    0.000       0.000      8.0000E-10  8.0000E-10  8.0000E-10  8.0000E-10   0.000       0.000       0.000       0.000    

                  ET RATE =  5.000000E-09

 USING ET EXTINCTION DEPTH FROM PREVIOUS STRESS PERIOD. CURRENT PERIOD IS:      23

 USING EXTINCTION WATER CONTENT FROM PREVIOUS STRESS PERIOD. CURRENT PERIOD IS:      23

 USING AIR ENTRY PRESSURE FROM PREVIOUS STRESS PERIOD. CURRENT PERIOD IS:      23

 USING ROOT PRESSURE HEAD FROM PREVIOUS STRESS PERIOD. CURRENT PERIOD IS:      23

 USING ROOT ACTIVITY FROM PREVIOUS STRESS PERIOD. CURRENT PERIOD IS:      23

 PROCESSING AG STRESS PERIOD DATA

 READING AG STRESS PERIOD DATA

 READING IRRIGATION WELL

 END PROCESSING AG STRESS PERIOD DATA OPTIONS
 
 SOLVING FOR HEAD 
                                                   Max.-Head-Change                         Max.-Flux-Residual
  Residual-Control   Outer-Iter.   Inner-Iter.     Column Row Layer    Maximum-Head-Change  Column Row Layer    Maximum-Flux-Residual          L2-NORM 
          0                 1           2             4    7     1       0.1295256959E+00       4    7    1         0.6835897178E+01      0.1351080137E+02
          0                 2           2             4    7     1      -0.1258850065E-01       4    7    1        -0.6832411652E+00      0.1248365369E+01
          0                 3           2             4    7     1       0.8565886870E-03       4    7    1         0.4779080918E-01      0.8733156801E-01
          0                 4           1             4    7     1      -0.3404220748E-04       4    7    1        -0.1952205316E-02      0.3569332550E-02

    ------------------------------------------------
       NWT REQUIRED            4 OUTER ITERATIONS 
       AND A TOTAL OF          7 INNER ITERATIONS.
    ------------------------------------------------

 NO OUTPUT CONTROL FOR STRESS PERIOD   23   TIME STEP    1
 
 SOLVING FOR HEAD 
                                                   Max.-Head-Change                         Max.-Flux-Residual
  Residual-Control   Outer-Iter.   Inner-Iter.     Column Row Layer    Maximum-Head-Change  Column Row Layer    Maximum-Flux-Residual          L2-NORM 
          0                 1           2             4    7     1       0.1275332781E+00       4    7    1         0.6730020792E+01      0.1325827172E+02
          0                 2           2             5    8     1       0.1505940290E-01       5    8    1         0.8483186483E+00      0.1509561517E+01
          0                 3           2             5    8     1       0.3717745662E-02       5    8    1         0.2039711253E+00      0.2220203033E+00
          0                 4           1             5    8     1       0.9178170266E-03       5    8    1         0.5070000618E-01      0.5081574923E-01
          0                 5           1             5    8     1       0.2265854900E-03       5    8    1         0.1250289933E-01      0.1250351271E-01
          0                 6           1             5    8     1       0.5593816708E-04       5    8    1         0.3086622525E-02      0.3086786902E-02

    ------------------------------------------------
       NWT REQUIRED            6 OUTER ITERATIONS 
       AND A TOTAL OF          9 INNER ITERATIONS.
    ------------------------------------------------

 NO OUTPUT CONTROL FOR STRESS PERIOD   23   TIME STEP    2
 
 SOLVING FOR HEAD 
                                                   Max.-Head-Change                         Max.-Flux-Residual
  Residual-Control   Outer-Iter.   Inner-Iter.     Column Row Layer    Maximum-Head-Change  Column Row Layer    Maximum-Flux-Residual          L2-NORM 
          0                 1           2             4    7     1       0.1262147139E+00       4    7    1         0.6626932568E+01      0.1391411683E+02
          0                 2           2             4    6     1       0.2057826378E-01       4    6    1         0.1133045010E+01      0.1536592384E+01
          0                 3           2             4    6     1       0.5143608161E-02       4    6    1         0.2809531378E+00      0.2984755736E+00
          0                 4           2             4    6     1       0.1285656615E-02       4    6    1         0.7036577468E-01      0.7243675128E-01
          0                 5           2             4    6     1       0.3213504504E-03       4    6    1         0.1758241609E-01      0.1808524286E-01
          0                 6           1             4    6     1       0.8032106038E-04       4    6    1         0.4394609798E-02      0.4520713826E-02

    ------------------------------------------------
       NWT REQUIRED            6 OUTER ITERATIONS 
       AND A TOTAL OF         11 INNER ITERATIONS.
    ------------------------------------------------

 NO OUTPUT CONTROL FOR STRESS PERIOD   23   TIME STEP    3
 
 SOLVING FOR HEAD 
                                                   Max.-Head-Change                         Max.-Flux-Residual
  Residual-Control   Outer-Iter.   Inner-Iter.     Column Row Layer    Maximum-Head-Change  Column Row Layer    Maximum-Flux-Residual          L2-NORM 
          0                 1           2             4    7     1       0.1251734395E+00       4    7    1         0.6575417235E+01      0.1365295213E+02
          0                 2           2             4    7     1       0.2641535103E-01       4    7    1         0.1454331901E+01      0.1769374235E+01
          0                 3           2             4    7     1      -0.2573947245E-02       4    7    1        -0.1448878477E+00      0.1624902684E+00
          0                 4           1             4    7     1       0.1736075759E-03       4    7    1         0.1010493740E-01      0.1203967869E-01
          0                 5           1             4    8     1      -0.2805838070E-04       4    8    1        -0.1560245389E-02      0.1614666929E-02

    ------------------------------------------------
       NWT REQUIRED            5 OUTER ITERATIONS 
       AND A TOTAL OF          8 INNER ITERATIONS.
    ------------------------------------------------

 NO OUTPUT CONTROL FOR STRESS PERIOD   23   TIME STEP    4
 
 SOLVING FOR HEAD 
                                                   Max.-Head-Change                         Max.-Flux-Residual
  Residual-Control   Outer-Iter.   Inner-Iter.     Column Row Layer    Maximum-Head-Change  Column Row Layer    Maximum-Flux-Residual          L2-NORM 
          0                 1           2             4    7     1       0.1221528898E+00       4    7    1         0.6414227292E+01      0.1340703367E+02
          0                 2           2             4    8     1       0.2555085253E-01       4    8    1         0.1400725725E+01      0.1836412612E+01
          0                 3           2             4    8     1      -0.1578296698E-02       4    8    1        -0.8902297319E-01      0.1379866545E+00
          0                 4           2             4    8     1       0.1073983670E-03       4    8    1         0.6200137863E-02      0.8568039501E-02
          0                 5           1             4    8     1      -0.4268315834E-05       4    8    1        -0.2522111392E-03      0.3252429352E-03

    ------------------------------------------------
       NWT REQUIRED            5 OUTER ITERATIONS 
       AND A TOTAL OF          9 INNER ITERATIONS.
    ------------------------------------------------

 NO OUTPUT CONTROL FOR STRESS PERIOD   23   TIME STEP    5
 
 SOLVING FOR HEAD 
                                                   Max.-Head-Change                         Max.-Flux-Residual
  Residual-Control   Outer-Iter.   Inner-Iter.     Column Row Layer    Maximum-Head-Change  Column Row Layer    Maximum-Flux-Residual          L2-NORM 
          0                 1           2             4    7     1       0.1212479657E+00       4    7    1         0.6370107846E+01      0.1317063630E+02
          0                 2           2             5    7     1       0.2351446927E-01       5    7    1         0.1322244313E+01      0.1788067281E+01
          0                 3           2             5    7     1       0.5801428776E-02       5    7    1         0.3186254668E+00      0.3297570789E+00
          0                 4           2             5    7     1       0.1198127602E-02       5    7    1         0.6620825328E-01      0.6628218355E-01
          0                 5           2             5    7     1      -0.1164850166E-03       5    7    1        -0.6617548464E-02      0.6620160109E-02
          0                 6           1             5    7     1       0.7926505249E-05       5    7    1         0.4629240520E-03      0.4631212464E-03

    ------------------------------------------------
       NWT REQUIRED            6 OUTER ITERATIONS 
       AND A TOTAL OF         11 INNER ITERATIONS.
    ------------------------------------------------

 NO OUTPUT CONTROL FOR STRESS PERIOD   23   TIME STEP    6
 
 SOLVING FOR HEAD 
                                                   Max.-Head-Change                         Max.-Flux-Residual
  Residual-Control   Outer-Iter.   Inner-Iter.     Column Row Layer    Maximum-Head-Change  Column Row Layer    Maximum-Flux-Residual          L2-NORM 
          0                 1           2             4    7     1       0.1204969798E+00       4    7    1         0.6335272024E+01      0.1294022652E+02
          0                 2           2             5    6     1       0.1227658851E-01       5    6    1         0.6950291488E+00      0.1398006593E+01
          0                 3           2             5    6     1       0.3031691762E-02       5    6    1         0.1660342665E+00      0.1865908861E+00
          0                 4           2             5    6     1       0.7486817033E-03       5    6    1         0.4135373823E-01      0.4148887208E-01
          0                 5           2             5    6     1       0.1848880191E-03       5    6    1         0.1019871861E-01      0.1019940083E-01
          0                 6           1             5    6     1       0.4565837785E-04       5    6    1         0.2518569273E-02      0.2518737600E-02

    ------------------------------------------------
       NWT REQUIRED            6 OUTER ITERATIONS 
       AND A TOTAL OF         11 INNER ITERATIONS.
    ------------------------------------------------

 NO OUTPUT CONTROL FOR STRESS PERIOD   23   TIME STEP    7
 
 SOLVING FOR HEAD 
                                                   Max.-Head-Change                         Max.-Flux-Residual
  Residual-Control   Outer-Iter.   Inner-Iter.     Column Row Layer    Maximum-Head-Change  Column Row Layer    Maximum-Flux-Residual          L2-NORM 
          0                 1           2             4    7     1       0.1190832993E+00       4    7    1         0.6261349999E+01      0.1272238636E+02
          0                 2           2             4    7     1      -0.1153948092E-01       4    7    1        -0.6258107765E+00      0.1256148094E+01
          0                 3           2             4    6     1      -0.1596144819E-02       4    6    1        -0.8933705401E-01      0.1268228818E+00
          0                 4           2             4    6     1       0.1086277976E-03       4    6    1         0.6232632954E-02      0.7805000561E-02
          0                 5           1             4    6     1      -0.4318172474E-05       4    6    1        -0.2539806605E-03      0.2953429959E-03

    ------------------------------------------------
       NWT REQUIRED            5 OUTER ITERATIONS 
       AND A TOTAL OF          9 INNER ITERATIONS.
    ------------------------------------------------

 NO OUTPUT CONTROL FOR STRESS PERIOD   23   TIME STEP    8
 
 SOLVING FOR HEAD 
                                                   Max.-Head-Change                         Max.-Flux-Residual
  Residual-Control   Outer-Iter.   Inner-Iter.     Column Row Layer    Maximum-Head-Change  Column Row Layer    Maximum-Flux-Residual          L2-NORM 
          0                 1           2             4    7     1       0.1176711414E+00       4    7    1         0.6187680791E+01      0.1251585841E+02
          0                 2           2             4    6     1       0.2550322795E-01       4    6    1         0.1380641577E+01      0.2074375998E+01
          0                 3           2             4    6     1       0.6208430842E-02       4    6    1         0.3337068714E+00      0.4619578143E+00
          0                 4           2             4    7     1       0.1471144105E-02       4    7    1         0.8058099765E-01      0.8725649996E-01
          0                 5           1             4    7     1      -0.4162836674E-04       4    6    1         0.2370958029E-02      0.3353499109E-02

    ------------------------------------------------
       NWT REQUIRED            5 OUTER ITERATIONS 
       AND A TOTAL OF          9 INNER ITERATIONS.
    ------------------------------------------------

 NO OUTPUT CONTROL FOR STRESS PERIOD   23   TIME STEP    9
 
 SOLVING FOR HEAD 
                                                   Max.-Head-Change                         Max.-Flux-Residual
  Residual-Control   Outer-Iter.   Inner-Iter.     Column Row Layer    Maximum-Head-Change  Column Row Layer    Maximum-Flux-Residual          L2-NORM 
          0                 1           2             4    7     1       0.1148144516E+00       4    7    1         0.6036830967E+01      0.1178159305E+02
          0                 2           2             4    7     1      -0.1116247534E-01       4    7    1        -0.6033702856E+00      0.1177563923E+01
          0                 3           2             4    7     1       0.7595483605E-03       4    7    1         0.4220397263E-01      0.8237046560E-01
          0                 4           1             4    7     1      -0.3018523612E-04       4    7    1        -0.1723979814E-02      0.3364951980E-02

    ------------------------------------------------
       NWT REQUIRED            4 OUTER ITERATIONS 
       AND A TOTAL OF          7 INNER ITERATIONS.
    ------------------------------------------------

 NO OUTPUT CONTROL FOR STRESS PERIOD   23   TIME STEP   10
 
 SOLVING FOR HEAD 
                                                   Max.-Head-Change                         Max.-Flux-Residual
  Residual-Control   Outer-Iter.   Inner-Iter.     Column Row Layer    Maximum-Head-Change  Column Row Layer    Maximum-Flux-Residual          L2-NORM 
          0                 1           2             4    7     1       0.1134241375E+00       4    7    1         0.5965472313E+01      0.1158539341E+02
          0                 2           2             4    7     1      -0.1084940791E-01       4    7    1        -0.5962384774E+00      0.1107561539E+01
          0                 3           2             4    8     1       0.1504173743E-02       4    8    1         0.8090750566E-01      0.1096314164E+00
          0                 4           2             4    8     1       0.3802330903E-03       4    8    1         0.2066054901E-01      0.2087407310E-01
          0                 5           1             4    8     1       0.9611717548E-04       4    8    1         0.5214653615E-02      0.5215053843E-02

    ------------------------------------------------
       NWT REQUIRED            5 OUTER ITERATIONS 
       AND A TOTAL OF          9 INNER ITERATIONS.
    ------------------------------------------------

 NO OUTPUT CONTROL FOR STRESS PERIOD   23   TIME STEP   11
 
 SOLVING FOR HEAD 
                                                   Max.-Head-Change                         Max.-Flux-Residual
  Residual-Control   Outer-Iter.   Inner-Iter.     Column Row Layer    Maximum-Head-Change  Column Row Layer    Maximum-Flux-Residual          L2-NORM 
          0                 1           2             4    7     1       0.1122185855E+00       4    7    1         0.5904517147E+01      0.1138789994E+02
          0                 2           2             4    8     1       0.1789772674E-01       4    8    1         0.9814247384E+00      0.1353060937E+01
          0                 3           2             4    8     1      -0.1740342308E-02       4    8    1        -0.9780330268E-01      0.1213191793E+00
          0                 4           2             5    7     1      -0.1353308332E-03       5    7    1        -0.7633551403E-02      0.1059085511E-01
          0                 5           1             5    7     1      -0.3613617143E-04       5    7    1        -0.2052849198E-02      0.2071764623E-02

    ------------------------------------------------
       NWT REQUIRED            5 OUTER ITERATIONS 
       AND A TOTAL OF          9 INNER ITERATIONS.
    ------------------------------------------------

 NO OUTPUT CONTROL FOR STRESS PERIOD   23   TIME STEP   12
 
 SOLVING FOR HEAD 
                                                   Max.-Head-Change                         Max.-Flux-Residual
  Residual-Control   Outer-Iter.   Inner-Iter.     Column Row Layer    Maximum-Head-Change  Column Row Layer    Maximum-Flux-Residual          L2-NORM 
          0                 1           2             4    7     1       0.1111726381E+00       4    7    1         0.5852545442E+01      0.1119161710E+02
          0                 2           2             5    7     1       0.2139821383E-01       5    7    1         0.1201391619E+01      0.1575641518E+01
          0                 3           2             5    7     1       0.5242959265E-02       5    7    1         0.2883311412E+00      0.2971754127E+00
          0                 4           2             5    7     1      -0.5097340619E-03       5    7    1        -0.2891469342E-01      0.2903649887E-01
          0                 5           1             5    7     1       0.3468604126E-04       5    7    1         0.2026394789E-02      0.2026897406E-02

    ------------------------------------------------
       NWT REQUIRED            5 OUTER ITERATIONS 
       AND A TOTAL OF          9 INNER ITERATIONS.
    ------------------------------------------------

 NO OUTPUT CONTROL FOR STRESS PERIOD   23   TIME STEP   13
 
 SOLVING FOR HEAD 
                                                   Max.-Head-Change                         Max.-Flux-Residual
  Residual-Control   Outer-Iter.   Inner-Iter.     Column Row Layer    Maximum-Head-Change  Column Row Layer    Maximum-Flux-Residual          L2-NORM 
          0                 1           2             4    7     1       0.1102321808E+00       4    7    1         0.5806881054E+01      0.1100149213E+02
          0                 2           2             4    6     1      -0.8950884710E-02       4    6    1        -0.4929105785E+00      0.9441985635E+00
          0                 3           2             4    7     1      -0.7686376159E-03       4    7    1        -0.4436804005E-01      0.7897302053E-01
          0                 4           1             4    7     1      -0.2091383354E-03       4    7    1        -0.1164749081E-01      0.1195516448E-01
          0                 5           1             4    7     1      -0.5690334924E-04       4    7    1        -0.3184633208E-02      0.3184709871E-02

    ------------------------------------------------
       NWT REQUIRED            5 OUTER ITERATIONS 
       AND A TOTAL OF          8 INNER ITERATIONS.
    ------------------------------------------------

 NO OUTPUT CONTROL FOR STRESS PERIOD   23   TIME STEP   14
 
 SOLVING FOR HEAD 
                                                   Max.-Head-Change                         Max.-Flux-Residual
  Residual-Control   Outer-Iter.   Inner-Iter.     Column Row Layer    Maximum-Head-Change  Column Row Layer    Maximum-Flux-Residual          L2-NORM 
          0                 1           2             4    7     1       0.1084056763E+00       4    7    1         0.5710611399E+01      0.1083175502E+02
          0                 2           2             4    7     1       0.2675320829E-01       4    7    1         0.1464899631E+01      0.1640094032E+01
          0                 3           2             4    7     1      -0.2612091615E-02       4    7    1        -0.1483467786E+00      0.1737661513E+00
          0                 4           2             4    6     1       0.3134783413E-03       4    6    1         0.1682945616E-01      0.2143482367E-01
          0                 5           1             4    6     1       0.7950409329E-04       4    6    1         0.4309450698E-02      0.4795539883E-02

    ------------------------------------------------
       NWT REQUIRED            5 OUTER ITERATIONS 
       AND A TOTAL OF          9 INNER ITERATIONS.
    ------------------------------------------------

 NO OUTPUT CONTROL FOR STRESS PERIOD   23   TIME STEP   15
 
 SOLVING FOR HEAD 
                                                   Max.-Head-Change                         Max.-Flux-Residual
  Residual-Control   Outer-Iter.   Inner-Iter.     Column Row Layer    Maximum-Head-Change  Column Row Layer    Maximum-Flux-Residual          L2-NORM 
          0                 1           2             4    7     1       0.1053633247E+00       4    7    1         0.5549649989E+01      0.1064501093E+02
          0                 2           2             4    6     1       0.1981147517E-01       4    6    1         0.1074407933E+01      0.1691556827E+01
          0                 3           2             5    6     1       0.4371863653E-02       5    6    1         0.2423285872E+00      0.2721010469E+00
          0                 4           2             5    6     1       0.1079573993E-02       5    6    1         0.5946818841E-01      0.6000073041E-01
          0                 5           2             5    6     1       0.2665871213E-03       5    6    1         0.1471175320E-01      0.1471443987E-01
          0                 6           1             5    6     1       0.6583029633E-04       5    6    1         0.3631502875E-02      0.3631711216E-02

    ------------------------------------------------
       NWT REQUIRED            6 OUTER ITERATIONS 
       AND A TOTAL OF         11 INNER ITERATIONS.
    ------------------------------------------------

 NO OUTPUT CONTROL FOR STRESS PERIOD   23   TIME STEP   16
 
 SOLVING FOR HEAD 
                                                   Max.-Head-Change                         Max.-Flux-Residual
  Residual-Control   Outer-Iter.   Inner-Iter.     Column Row Layer    Maximum-Head-Change  Column Row Layer    Maximum-Flux-Residual          L2-NORM 
          0                 1           2             4    7     1       0.1043131873E+00       4    7    1         0.5496001622E+01      0.1046588174E+02
          0                 2           2             4    7     1      -0.1014113432E-01       4    7    1        -0.5493182360E+00      0.1029353371E+01
          0                 3           2             4    7     1       0.6900522505E-03       4    7    1         0.3842323049E-01      0.7200401197E-01
          0                 4           1             4    7     1      -0.2742346763E-04       4    7    1        -0.1569545428E-02      0.2941510679E-02

    ------------------------------------------------
       NWT REQUIRED            4 OUTER ITERATIONS 
       AND A TOTAL OF          7 INNER ITERATIONS.
    ------------------------------------------------

 NO OUTPUT CONTROL FOR STRESS PERIOD   23   TIME STEP   17
 
 SOLVING FOR HEAD 
                                                   Max.-Head-Change                         Max.-Flux-Residual
  Residual-Control   Outer-Iter.   Inner-Iter.     Column Row Layer    Maximum-Head-Change  Column Row Layer    Maximum-Flux-Residual          L2-NORM 
          0                 1           2             4    7     1       0.1028585244E+00       4    7    1         0.5419889202E+01      0.1031481883E+02
          0                 2           2             4    7     1      -0.1000014242E-01       4    7    1        -0.5417108980E+00      0.1030971055E+01
          0                 3           2             4    7     1       0.6804585063E-03       4    7    1         0.3789112122E-01      0.7211719261E-01
          0                 4           1             4    7     1      -0.2704220220E-04       4    7    1        -0.1547809461E-02      0.2946152762E-02

    ------------------------------------------------
       NWT REQUIRED            4 OUTER ITERATIONS 
       AND A TOTAL OF          7 INNER ITERATIONS.
    ------------------------------------------------

 NO OUTPUT CONTROL FOR STRESS PERIOD   23   TIME STEP   18
 
 SOLVING FOR HEAD 
                                                   Max.-Head-Change                         Max.-Flux-Residual
  Residual-Control   Outer-Iter.   Inner-Iter.     Column Row Layer    Maximum-Head-Change  Column Row Layer    Maximum-Flux-Residual          L2-NORM 
          0                 1           2             4    7     1       0.1007977736E+00       4    7    1         0.5344299815E+01      0.9483508956E+01
          0                 2           2             4    7     1      -0.9799944700E-02       4    7    1        -0.5341661006E+00      0.9478923041E+00
          0                 3           2             4    7     1       0.6668378207E-03       4    7    1         0.3736347787E-01      0.6630639850E-01
          0                 4           1             4    7     1      -0.2650110018E-04       4    7    1        -0.1526268040E-02      0.2708809527E-02

    ------------------------------------------------
       NWT REQUIRED            4 OUTER ITERATIONS 
       AND A TOTAL OF          7 INNER ITERATIONS.
    ------------------------------------------------

 NO OUTPUT CONTROL FOR STRESS PERIOD   23   TIME STEP   19
 
 SOLVING FOR HEAD 
                                                   Max.-Head-Change                         Max.-Flux-Residual
  Residual-Control   Outer-Iter.   Inner-Iter.     Column Row Layer    Maximum-Head-Change  Column Row Layer    Maximum-Flux-Residual          L2-NORM 
          0                 1           2             4    7     1       0.9812174138E-01       4    7    1         0.5237212848E+01      0.8589344851E+01
          0                 2           2             4    7     1      -0.9318062926E-02       4    7    1        -0.5110346301E+00      0.8510071485E+00
          0                 3           2             4    6     1       0.5460217269E-03       4    6    1         0.3068743658E-01      0.5300675786E-01
          0                 4           1             4    6     1      -0.2169986824E-04       4    6    1        -0.1253561436E-02      0.2165605495E-02

    ------------------------------------------------
       NWT REQUIRED            4 OUTER ITERATIONS 
       AND A TOTAL OF          7 INNER ITERATIONS.
    ------------------------------------------------

 NO OUTPUT CONTROL FOR STRESS PERIOD   23   TIME STEP   20
 
 SOLVING FOR HEAD 
                                                   Max.-Head-Change                         Max.-Flux-Residual
  Residual-Control   Outer-Iter.   Inner-Iter.     Column Row Layer    Maximum-Head-Change  Column Row Layer    Maximum-Flux-Residual          L2-NORM 
          0                 1           2             4    7     1       0.9558270835E-01       4    7    1         0.5098172292E+01      0.8437591405E+01
          0                 2           2             4    7     1       0.2109784546E-01       4    7    1         0.1161788608E+01      0.1342144750E+01
          0                 3           2             4    7     1       0.5297480993E-02       4    7    1         0.2880431286E+00      0.2919470165E+00
          0                 4           1             4    7     1       0.1330153928E-02       4    7    1         0.7255268435E-01      0.7257240087E-01
          0                 5           1             4    7     1       0.3339906624E-03       4    7    1         0.1820809792E-01      0.1820869918E-01
          0                 6           1             4    7     1       0.8386231249E-04       4    7    1         0.4572002277E-02      0.4572144420E-02

    ------------------------------------------------
       NWT REQUIRED            6 OUTER ITERATIONS 
       AND A TOTAL OF          9 INNER ITERATIONS.
    ------------------------------------------------

 NO OUTPUT CONTROL FOR STRESS PERIOD   23   TIME STEP   21
 
 SOLVING FOR HEAD 
                                                   Max.-Head-Change                         Max.-Flux-Residual
  Residual-Control   Outer-Iter.   Inner-Iter.     Column Row Layer    Maximum-Head-Change  Column Row Layer    Maximum-Flux-Residual          L2-NORM 
          0                 1           2             4    7     1       0.9126706943E-01       4    7    1         0.4862146310E+01      0.7656382241E+01
          0                 2           2             4    6     1      -0.7729386203E-02       4    6    1        -0.4266511639E+00      0.6596157079E+00
          0                 3           2             4    6     1       0.5259536647E-03       4    6    1         0.2984346159E-01      0.4614390735E-01
          0                 4           1             4    6     1      -0.2090256033E-04       4    6    1        -0.1219100036E-02      0.1885301915E-02

    ------------------------------------------------
       NWT REQUIRED            4 OUTER ITERATIONS 
       AND A TOTAL OF          7 INNER ITERATIONS.
    ------------------------------------------------

 NO OUTPUT CONTROL FOR STRESS PERIOD   23   TIME STEP   22
 
 SOLVING FOR HEAD 
                                                   Max.-Head-Change                         Max.-Flux-Residual
  Residual-Control   Outer-Iter.   Inner-Iter.     Column Row Layer    Maximum-Head-Change  Column Row Layer    Maximum-Flux-Residual          L2-NORM 
          0                 1           2             4    7     1       0.8888353784E-01       4    7    1         0.4732911073E+01      0.7513583992E+01
          0                 2           2             4    6     1       0.1412630427E-01       4    6    1         0.7799010908E+00      0.9997250320E+00
          0                 3           2             4    6     1       0.3545684552E-02       4    6    1         0.1927152729E+00      0.1976970036E+00
          0                 4           2             4    6     1       0.8899663675E-03       4    6    1         0.4856068105E-01      0.4858861152E-01
          0                 5           2             4    6     1       0.2233813424E-03       4    6    1         0.1218120392E-01      0.1218162680E-01
          0                 6           1             4    6     1       0.5606867278E-04       4    6    1         0.3057541177E-02      0.3057638547E-02

    ------------------------------------------------
       NWT REQUIRED            6 OUTER ITERATIONS 
       AND A TOTAL OF         11 INNER ITERATIONS.
    ------------------------------------------------

 NO OUTPUT CONTROL FOR STRESS PERIOD   23   TIME STEP   23
 
 SOLVING FOR HEAD 
                                                   Max.-Head-Change                         Max.-Flux-Residual
  Residual-Control   Outer-Iter.   Inner-Iter.     Column Row Layer    Maximum-Head-Change  Column Row Layer    Maximum-Flux-Residual          L2-NORM 
          0                 1           2             4    6     1       0.7406183735E-01       4    6    1         0.3978319158E+01      0.6135272133E+01
          0                 2           2             4    6     1       0.8130232421E-02       4    6    1         0.4495606627E+00      0.6481370504E+00
          0                 3           2             4    6     1      -0.7904429182E-03       4    6    1        -0.4475857537E-01      0.5551116738E-01
          0                 4           1             4    6     1       0.5378740306E-04       4    6    1         0.3119006715E-02      0.3402129886E-02

    ------------------------------------------------
       NWT REQUIRED            4 OUTER ITERATIONS 
       AND A TOTAL OF          7 INNER ITERATIONS.
    ------------------------------------------------

 NO OUTPUT CONTROL FOR STRESS PERIOD   23   TIME STEP   24
 
 SOLVING FOR HEAD 
                                                   Max.-Head-Change                         Max.-Flux-Residual
  Residual-Control   Outer-Iter.   Inner-Iter.     Column Row Layer    Maximum-Head-Change  Column Row Layer    Maximum-Flux-Residual          L2-NORM 
          0                 1           2             4    6     1       0.7096782016E-01       4    6    1         0.3807970465E+01      0.6011887189E+01
          0                 2           2             4    6     1      -0.6899715129E-02       4    6    1        -0.3806042531E+00      0.6009273953E+00
          0                 3           2             4    6     1       0.4694978292E-03       4    6    1         0.2662254547E-01      0.4203903673E-01
          0                 4           1             4    6     1      -0.1865888838E-04       4    6    1        -0.1087525355E-02      0.1717639576E-02

    ------------------------------------------------
       NWT REQUIRED            4 OUTER ITERATIONS 
       AND A TOTAL OF          7 INNER ITERATIONS.
    ------------------------------------------------

 NO OUTPUT CONTROL FOR STRESS PERIOD   23   TIME STEP   25
 
 SOLVING FOR HEAD 
                                                   Max.-Head-Change                         Max.-Flux-Residual
  Residual-Control   Outer-Iter.   Inner-Iter.     Column Row Layer    Maximum-Head-Change  Column Row Layer    Maximum-Flux-Residual          L2-NORM 
          0                 1           2             4    6     1       0.6877224865E-01       4    6    1         0.3687371590E+01      0.5912971458E+01
          0                 2           2             4    6     1      -0.6686248339E-02       4    6    1        -0.3685500182E+00      0.5910406233E+00
          0                 3           2             4    6     1       0.4549721325E-03       4    6    1         0.2577936307E-01      0.4134746637E-01
          0                 4           1             4    6     1      -0.1808159346E-04       4    6    1        -0.1053080534E-02      0.1689385809E-02

    ------------------------------------------------
       NWT REQUIRED            4 OUTER ITERATIONS 
       AND A TOTAL OF          7 INNER ITERATIONS.
    ------------------------------------------------

 NO OUTPUT CONTROL FOR STRESS PERIOD   23   TIME STEP   26
 
 SOLVING FOR HEAD 
                                                   Max.-Head-Change                         Max.-Flux-Residual
  Residual-Control   Outer-Iter.   Inner-Iter.     Column Row Layer    Maximum-Head-Change  Column Row Layer    Maximum-Flux-Residual          L2-NORM 
          0                 1           2             4    6     1       0.6669363668E-01       4    6    1         0.3573285440E+01      0.5819016635E+01
          0                 2           2             4    6     1      -0.6484153280E-02       4    6    1        -0.3571467653E+00      0.5816497312E+00
          0                 3           2             4    6     1       0.4412202488E-03       4    6    1         0.2498171660E-01      0.4069059242E-01
          0                 4           1             4    6     1      -0.1753505223E-04       4    6    1        -0.1020495943E-02      0.1662552732E-02

    ------------------------------------------------
       NWT REQUIRED            4 OUTER ITERATIONS 
       AND A TOTAL OF          7 INNER ITERATIONS.
    ------------------------------------------------

 NO OUTPUT CONTROL FOR STRESS PERIOD   23   TIME STEP   27
 
 SOLVING FOR HEAD 
                                                   Max.-Head-Change                         Max.-Flux-Residual
  Residual-Control   Outer-Iter.   Inner-Iter.     Column Row Layer    Maximum-Head-Change  Column Row Layer    Maximum-Flux-Residual          L2-NORM 
          0                 1           2             4    6     1       0.6472438067E-01       4    6    1         0.3465285394E+01      0.5729538069E+01
          0                 2           2             4    6     1      -0.6292690668E-02       4    6    1        -0.3463518510E+00      0.5727061314E+00
          0                 3           2             4    6     1       0.4281918710E-03       4    6    1         0.2422662316E-01      0.4006500683E-01
          0                 4           1             4    6     1      -0.1701726596E-04       4    6    1        -0.9896496929E-03      0.1637006327E-02

    ------------------------------------------------
       NWT REQUIRED            4 OUTER ITERATIONS 
       AND A TOTAL OF          7 INNER ITERATIONS.
    ------------------------------------------------

 NO OUTPUT CONTROL FOR STRESS PERIOD   23   TIME STEP   28
 
 SOLVING FOR HEAD 
                                                   Max.-Head-Change                         Max.-Flux-Residual
  Residual-Control   Outer-Iter.   Inner-Iter.     Column Row Layer    Maximum-Head-Change  Column Row Layer    Maximum-Flux-Residual          L2-NORM 
          0                 1           2             4    7     1       0.4210230291E-01       4    7    1         0.2228741647E+01      0.4633251550E+01
          0                 2           2             4    7     1      -0.4093245249E-02       4    7    1        -0.2227571289E+00      0.4631459542E+00
          0                 3           2             4    7     1       0.2785258805E-03       4    7    1         0.1558130608E-01      0.3240268041E-01
          0                 4           1             4    7     1      -0.1106900381E-04       4    7    1        -0.6364822636E-03      0.1324076628E-02

    ------------------------------------------------
       NWT REQUIRED            4 OUTER ITERATIONS 
       AND A TOTAL OF          7 INNER ITERATIONS.
    ------------------------------------------------

 NO OUTPUT CONTROL FOR STRESS PERIOD   23   TIME STEP   29
 
 SOLVING FOR HEAD 
                                                   Max.-Head-Change                         Max.-Flux-Residual
  Residual-Control   Outer-Iter.   Inner-Iter.     Column Row Layer    Maximum-Head-Change  Column Row Layer    Maximum-Flux-Residual          L2-NORM 
          0                 1           2             4    7     1       0.4134253632E-01       4    7    1         0.2187548119E+01      0.4575099521E+01
          0                 2           2             4    7     1      -0.4019377735E-02       4    7    1        -0.2186398111E+00      0.4573328226E+00
          0                 3           2             4    7     1       0.2734994785E-03       4    7    1         0.1529330557E-01      0.3199599162E-01
          0                 4           1             4    7     1      -0.1086924223E-04       4    7    1        -0.6247173519E-03      0.1307461814E-02

    ------------------------------------------------
       NWT REQUIRED            4 OUTER ITERATIONS 
       AND A TOTAL OF          7 INNER ITERATIONS.
    ------------------------------------------------

 NO OUTPUT CONTROL FOR STRESS PERIOD   23   TIME STEP   30



 STREAM LISTING     PERIOD     23   STEP       30

 LAYER ROW COL. STREAM  RCH.  FLOW INTO     FLOW TO   FLOW OUT OF   OVRLND.     DIRECT     STREAM       STREAM     STREAM     STREAM   STREAMBED  STREAMBED
                SEG.NO.  NO.  STRM. RCH.    AQUIFER    STRM. RCH.    RUNOFF     PRECIP       ET          HEAD       DEPTH      WIDTH   CONDCTNC.   GRADIENT

   1    1    1     1     1    2.2000E+01  2.3088E-01   2.1769E+01  0.000E+00  0.000E+00  0.000E+00  1.09418E+03  1.132E+00  1.242E+01  5.588E-02  1.377E+00
   1    2    2     1     2    2.1769E+01  3.5689E-01   2.1413E+01  0.000E+00  0.000E+00  0.000E+00  1.08919E+03  1.127E+00  1.235E+01  8.648E-02  1.376E+00
   1    3    3     1     3    2.1413E+01  3.0372E-01   2.1109E+01  0.000E+00  0.000E+00  0.000E+00  1.08354E+03  1.121E+00  1.228E+01  7.369E-02  1.374E+00
   1    3    4     1     4    2.1109E+01  2.7914E-01   2.0830E+01  0.000E+00  0.000E+00  0.000E+00  1.07852E+03  1.117E+00  1.222E+01  6.781E-02  1.372E+00
   1    4    5     2     1    1.8830E+01  3.1306E-01   1.8517E+01  0.000E+00  0.000E+00  0.000E+00  1.07295E+03  1.014E+00  1.200E+01  7.800E-02  1.338E+00
   1    5    6     2     2    1.8517E+01  2.4027E-01   1.8276E+01  0.000E+00  0.000E+00  0.000E+00  1.06751E+03  1.005E+00  1.200E+01  6.000E-02  1.335E+00
   1    6    6     2     3    1.8276E+01  2.3980E-01   1.8037E+01  0.000E+00  0.000E+00  0.000E+00  1.06279E+03  9.967E-01  1.200E+01  6.000E-02  1.332E+00
   1    7    6     2     4    1.8037E+01  2.3933E-01   1.7797E+01  0.000E+00  0.000E+00  0.000E+00  1.05806E+03  9.888E-01  1.200E+01  6.000E-02  1.330E+00
   1    8    6     2     5    1.7797E+01  2.3885E-01   1.7558E+01  0.000E+00  0.000E+00  0.000E+00  1.05334E+03  9.808E-01  1.200E+01  6.000E-02  1.327E+00
   1    3    5     3     1    2.0000E+00  2.8252E-01   1.7175E+00  0.000E+00  0.000E+00  0.000E+00  1.07555E+03  1.909E+00  9.636E+00  7.227E-02  1.955E+00
   1    3    6     3     2    1.7175E+00  2.4905E-01   1.4684E+00  0.000E+00  0.000E+00  0.000E+00  1.07264E+03  1.727E+00  8.909E+00  6.682E-02  1.864E+00
   1    3    7     3     3    1.4684E+00  1.9718E-01   1.2712E+00  0.000E+00  0.000E+00  0.000E+00  1.06987E+03  1.555E+00  8.218E+00  5.547E-02  1.777E+00
   1    4    8     3     4    1.2712E+00  2.2567E-01   1.0456E+00  0.000E+00  0.000E+00  0.000E+00  1.06682E+03  1.364E+00  7.455E+00  6.709E-02  1.682E+00
   1    5    8     3     5    1.0456E+00  1.5790E-01   8.8768E-01  0.000E+00  0.000E+00  0.000E+00  1.06362E+03  1.164E+00  6.655E+00  4.991E-02  1.582E+00
   1    6    8     3     6    8.8768E-01  5.5980E-02   8.3170E-01  0.000E+00  0.000E+00  0.000E+00  1.06158E+03  1.036E+00  6.145E+00  1.844E-02  1.518E+00
   1    5   10     4     1    1.0000E+01  9.0919E-02   9.9091E+00  0.000E+00  0.000E+00  0.000E+00  1.07836E+03  6.368E-01  1.000E+01  2.500E-02  1.212E+00
   1    5    9     4     2    9.9091E+00  1.8158E-01   9.7275E+00  0.000E+00  0.000E+00  0.000E+00  1.07154E+03  6.315E-01  1.000E+01  5.000E-02  1.211E+00
   1    6    8     4     3    9.7275E+00  1.2689E-01   9.6006E+00  0.000E+00  0.000E+00  0.000E+00  1.06381E+03  6.256E-01  1.000E+01  3.500E-02  1.209E+00
   1    6    8     5     1    1.0432E+01  2.2686E-01   1.0205E+01  0.000E+00  0.000E+00  0.000E+00  1.05868E+03  6.790E-01  1.542E+01  6.166E-02  1.226E+00
   1    7    7     5     2    1.0205E+01  2.7894E-01   9.9265E+00  0.000E+00  0.000E+00  0.000E+00  1.05417E+03  6.732E-01  1.519E+01  7.594E-02  1.224E+00
   1    8    7     5     3    9.9265E+00  1.9221E-01   9.7343E+00  0.000E+00  0.000E+00  0.000E+00  1.04992E+03  6.676E-01  1.497E+01  5.241E-02  1.223E+00
   1    8    6     5     4    9.7343E+00  1.3577E-01   9.5985E+00  0.000E+00  0.000E+00  0.000E+00  1.04691E+03  6.637E-01  1.482E+01  3.706E-02  1.221E+00
   1    9    6     6     1    2.7157E+01  2.5677E-01   2.6900E+01  0.000E+00  0.000E+00  0.000E+00  1.04401E+03  1.280E+00  1.200E+01  6.000E-02  1.427E+00
   1   10    7     6     2    2.6900E+01  2.5634E-01   2.6644E+01  0.000E+00  0.000E+00  0.000E+00  1.03945E+03  1.272E+00  1.200E+01  6.000E-02  1.424E+00
   1   11    7     6     3    2.6644E+01  2.5590E-01   2.6388E+01  0.000E+00  0.000E+00  0.000E+00  1.03490E+03  1.265E+00  1.200E+01  6.000E-02  1.422E+00
   1   12    7     6     4    2.6388E+01  2.5546E-01   2.6132E+01  0.000E+00  0.000E+00  0.000E+00  1.03035E+03  1.258E+00  1.200E+01  6.000E-02  1.419E+00
   1   13    7     6     5    2.6132E+01  3.4586E-03   2.6129E+01  0.000E+00  0.000E+00  0.000E+00  1.02716E+03  1.254E+00  1.200E+01  2.400E-02  4.804E-02
   1   14    9     7     1    1.5000E+02  1.3354E+00   1.4866E+02  0.000E+00  0.000E+00  0.000E+00  1.03987E+03  2.288E+00  5.529E+01  5.593E-01  7.959E-01
   1   13    8     7     2    1.4866E+02  1.8441E+00   1.4682E+02  0.000E+00  0.000E+00  0.000E+00  1.03478E+03  2.279E+00  5.526E+01  6.148E-01  9.999E-01
   1   13    7     7     3    1.4682E+02  1.4915E+00   1.4533E+02  0.000E+00  0.000E+00  0.000E+00  1.02969E+03  2.270E+00  5.522E+01  5.584E-01  8.903E-01
   1   13    6     8     1    1.7146E+02  9.5115E-01   1.7051E+02  0.000E+00  0.000E+00  0.000E+00  1.02483E+03  2.959E+00  4.290E+01  4.372E-01  7.252E-01
   1   13    5     8     2    1.7051E+02  2.0663E-01   1.7030E+02  0.000E+00  0.000E+00  0.000E+00  1.01858E+03  2.955E+00  4.285E+01  4.366E-01  1.578E-01
   1   13    4     8     3    1.7030E+02 -2.3203E+00   1.7262E+02  0.000E+00  0.000E+00  0.000E+00  1.01234E+03  2.962E+00  4.294E+01  4.376E+00 -1.767E-01
   1   13    3     8     4    1.7262E+02 -3.6110E+00   1.7623E+02  0.000E+00  0.000E+00  0.000E+00  1.00611E+03  2.981E+00  4.322E+01  4.404E+00 -2.733E-01
   1   13    2     8     5    1.7623E+02 -2.5802E+00   1.7881E+02  0.000E+00  0.000E+00  0.000E+00  9.99876E+02  3.001E+00  4.351E+01  4.434E+00 -1.940E-01
   1   13    1     8     6    1.7881E+02 -1.9989E+00   1.8081E+02  0.000E+00  0.000E+00  0.000E+00  9.94890E+02  3.015E+00  4.372E+01  2.673E+00 -2.493E-01





UNSATURATED ZONE PACKAGE VOLUMETRIC BUDGET FOR  TIME STEP    30 STRESS PERIOD   23
  ------------------------------------------------------------------------------



     CUMULATIVE VOLUMES      L**3       RATES FOR THIS TIME STEP      L**3/T
     ------------------                 ------------------------

           IN:                                      IN:
           ---                                      ---
        INFILTRATION =   919194182.5646          INFILTRATION =           0.8475

          OUT:                                     OUT:
          ----                                     ----
              UZF ET =   843266598.2570                UZF ET =           0.8475
        UZF RECHARGE =    75852119.3966          UZF RECHARGE =           0.0005

            IN - OUT =       75464.9110              IN - OUT =      -4.5093E-04

          STORAGE:                                 STORAGE:
          --------                                 --------
      STORAGE CHANGE =       75468.8261        STORAGE CHANGE =      -4.5093E-04

 PERCENT DISCREPANCY IS DIFFERENCE BETWEEN IN-OUT MINUS CHANGE IN STORAGE
 DIVIDED BY THE AVERAGE OF IN AND OUT TIMES 100

 PERCENT DISCREPANCY =           0.00     PERCENT DISCREPANCY =           0.00






1
  VOLUMETRIC BUDGET FOR AGRICULTURAL FIELDS AT  END OF TIME STEP   30, STRESS PERIOD  23
  ------------------------------------------------------------------------------

     CUMULATIVE VOLUMES      L**3       RATES FOR THIS TIME STEP      L**3/T
     ------------------                 ------------------------

           IN:                                      IN:
           ---                                      ---
               AG WELLS  =   870083328.0000                 AG WELLS  =           0.0000
      DIVERSION SEGMENTS =           0.0000        DIVERSION SEGMENTS =           0.0000
           GW IRRIGATION =           0.0000             GW IRRIGATION =           0.0000
           SW IRRIGATION =           0.0000             SW IRRIGATION =           0.0000
        SYSTEM LOSSES GW =           0.0000          SYSTEM LOSSES GW =           0.0000
        SYSTEM LOSSES SW =           0.0000          SYSTEM LOSSES SW =           0.0000

                TOTAL IN =   870083328.0000                  TOTAL IN =           0.0000

          OUT:                                     OUT:
          ----                                     ----
               AG WELLS  =           0.0000                 AG WELLS  =           0.0000
      DIVERSION SEGMENTS =           0.0000        DIVERSION SEGMENTS =           0.0000
           GW IRRIGATION =   870083328.0000             GW IRRIGATION =           0.0000
           SW IRRIGATION =           0.0000             SW IRRIGATION =           0.0000
        SYSTEM LOSSES GW =           0.0000          SYSTEM LOSSES GW =           0.0000
        SYSTEM LOSSES SW =           0.0000          SYSTEM LOSSES SW =           0.0000

               TOTAL OUT =   870083328.0000                 TOTAL OUT =           0.0000

                IN - OUT =           0.0000                  IN - OUT =           0.0000

     PERCENT DISCREPANCY =           0.00         PERCENT DISCREPANCY =           0.00



1
  VOLUMETRIC BUDGET FOR ENTIRE MODEL AT END OF TIME STEP   30, STRESS PERIOD  23
  ------------------------------------------------------------------------------

     CUMULATIVE VOLUMES      L**3       RATES FOR THIS TIME STEP      L**3/T
     ------------------                 ------------------------

           IN:                                      IN:
           ---                                      ---
             STORAGE     =  1093524608.0000               STORAGE     =          12.6100
       CONSTANT HEAD     =           0.0000         CONSTANT HEAD     =           0.0000
     HEAD DEP BOUNDS     =    16540729.0000       HEAD DEP BOUNDS     =           0.2857
      STREAM LEAKAGE     =   723463616.0000        STREAM LEAKAGE     =          11.7001
        UZF RECHARGE     =    75852144.0000          UZF RECHARGE     =       4.5093E-04
               GW ET     =           0.0000                 GW ET     =           0.0000
     SURFACE LEAKAGE     =           0.0000       SURFACE LEAKAGE     =           0.0000
           AG WELLS      =           0.0000             AG WELLS      =           0.0000

                TOTAL IN =  1909380992.0000                  TOTAL IN =          24.5963

          OUT:                                     OUT:
          ----                                     ----
             STORAGE     =   404129344.0000               STORAGE     =          13.7955
       CONSTANT HEAD     =           0.0000         CONSTANT HEAD     =           0.0000
     HEAD DEP BOUNDS     =    17061140.0000       HEAD DEP BOUNDS     =           0.2902
      STREAM LEAKAGE     =   600494784.0000        STREAM LEAKAGE     =          10.5105
        UZF RECHARGE     =           0.0000          UZF RECHARGE     =           0.0000
               GW ET     =    17607600.0000                 GW ET     =           0.0000
     SURFACE LEAKAGE     =           0.0000       SURFACE LEAKAGE     =           0.0000
           AG WELLS      =   870083328.0000             AG WELLS      =           0.0000

               TOTAL OUT =  1909376256.0000                 TOTAL OUT =          24.5963

                IN - OUT =        4736.0000                  IN - OUT =       7.6294E-06

     PERCENT DISCREPANCY =           0.00         PERCENT DISCREPANCY =           0.00






         TIME SUMMARY AT END OF TIME STEP   30 IN STRESS PERIOD   23
                    SECONDS     MINUTES      HOURS       DAYS        YEARS
                    -----------------------------------------------------------
   TIME STEP LENGTH  87667.      1461.1      24.352      1.0147     2.77799E-03
 STRESS PERIOD TIME 2.63000E+06  43833.      730.56      30.440     8.33397E-02
         TOTAL TIME 5.79467E+07 9.65778E+05  16096.      670.68      1.8362    
1
1
                            STRESS PERIOD NO.   24, LENGTH =   2630000.    
                            -----------------------------------------------

                              NUMBER OF TIME STEPS =    30

                               MULTIPLIER FOR DELT =     1.000

                            INITIAL TIME STEP SIZE =   87666.66    

 REUSING NON-PARAMETER GHB CELLS FROM LAST STRESS PERIOD

      2 GHB CELLS

 REUSING STREAM SEGMENT DATA FROM LAST STRESS PERIOD



            AREAL INFILTRATION RATE
 READING ON UNIT   19 WITH FORMAT: (FREE)              

            1           2           3           4           5           6           7           8           9          10
 ........................................................................................................................
   1   1.0000E-10  2.0000E-10   0.000       0.000       0.000       0.000       0.000       0.000       0.000       0.000    
   2   2.0000E-10  1.0000E-10  2.0000E-10   0.000       0.000      8.0000E-10  8.0000E-10  5.0000E-10   0.000       0.000    
   3    0.000      5.0000E-10  1.0000E-10  1.0000E-10  8.0000E-10  8.0000E-10  5.0000E-10  5.0000E-10   0.000       0.000    
   4   8.0000E-10  5.0000E-10  1.0000E-10  1.0000E-10  1.0000E-10  1.0000E-10  1.0000E-10  1.0000E-10  2.0000E-10   0.000    
   5   8.0000E-10  5.0000E-10  1.0000E-10  1.0000E-10  1.0000E-10  1.0000E-10  1.0000E-10  1.0000E-10  1.0000E-10  1.0000E-10
   6   8.0000E-10  5.0000E-10  5.0000E-10  2.0000E-10  2.0000E-10  1.0000E-10  1.0000E-10  1.0000E-10  1.0000E-10  5.0000E-10
   7   8.0000E-10  5.0000E-10  5.0000E-10  2.0000E-10  2.0000E-10  1.0000E-10  1.0000E-10  2.0000E-10  2.0000E-10   0.000    
   8    0.000      5.0000E-10  5.0000E-10  2.0000E-10  2.0000E-10  1.0000E-10  1.0000E-10  2.0000E-10  5.0000E-10   0.000    
   9    0.000      5.0000E-10  5.0000E-10  2.0000E-10  2.0000E-10  1.0000E-10  1.0000E-10  2.0000E-10  5.0000E-10   0.000    
  10    0.000      5.0000E-10  5.0000E-10  2.0000E-10  2.0000E-10  1.0000E-10  1.0000E-10  2.0000E-10  5.0000E-10  8.0000E-10
  11    0.000      1.0000E-10  1.0000E-10  1.0000E-10  1.0000E-10  1.0000E-10  1.0000E-10  2.0000E-10  5.0000E-10   0.000    
  12   1.0000E-10  1.0000E-10  1.0000E-10  1.0000E-10  1.0000E-10  1.0000E-10  1.0000E-10  1.0000E-10  2.0000E-10   0.000    
  13   1.0000E-10  1.0000E-10  2.0000E-10  2.0000E-10  2.0000E-10  2.0000E-10  2.0000E-10  1.0000E-10  1.0000E-10   0.000    
  14    0.000      2.0000E-10  5.0000E-10  5.0000E-10  5.0000E-10  5.0000E-10  5.0000E-10  2.0000E-10  1.0000E-10   0.000    
  15    0.000       0.000      8.0000E-10  8.0000E-10  8.0000E-10  8.0000E-10   0.000       0.000       0.000       0.000    

                  ET RATE =  5.000000E-10

 USING ET EXTINCTION DEPTH FROM PREVIOUS STRESS PERIOD. CURRENT PERIOD IS:      24

 USING EXTINCTION WATER CONTENT FROM PREVIOUS STRESS PERIOD. CURRENT PERIOD IS:      24

 USING AIR ENTRY PRESSURE FROM PREVIOUS STRESS PERIOD. CURRENT PERIOD IS:      24

 USING ROOT PRESSURE HEAD FROM PREVIOUS STRESS PERIOD. CURRENT PERIOD IS:      24

 USING ROOT ACTIVITY FROM PREVIOUS STRESS PERIOD. CURRENT PERIOD IS:      24

 PROCESSING AG STRESS PERIOD DATA

 READING AG STRESS PERIOD DATA

 READING IRRIGATION WELL

 END PROCESSING AG STRESS PERIOD DATA OPTIONS
 
 SOLVING FOR HEAD 
                                                   Max.-Head-Change                         Max.-Flux-Residual
  Residual-Control   Outer-Iter.   Inner-Iter.     Column Row Layer    Maximum-Head-Change  Column Row Layer    Maximum-Flux-Residual          L2-NORM 
          0                 1           2             4    7     1       0.4061368669E-01       4    7    1         0.2148075023E+01      0.4519273121E+01
          0                 2           2             4    7     1      -0.3948516126E-02       4    7    1        -0.2146944564E+00      0.4517165592E+00
          0                 3           2             4    7     1       0.2686776203E-03       4    7    1         0.1501733383E-01      0.3160293392E-01
          0                 4           1             4    7     1      -0.1067761026E-04       4    7    1        -0.6134438424E-03      0.1291426008E-02

    ------------------------------------------------
       NWT REQUIRED            4 OUTER ITERATIONS 
       AND A TOTAL OF          7 INNER ITERATIONS.
    ------------------------------------------------

 NO OUTPUT CONTROL FOR STRESS PERIOD   24   TIME STEP    1
 
 SOLVING FOR HEAD 
                                                   Max.-Head-Change                         Max.-Flux-Residual
  Residual-Control   Outer-Iter.   Inner-Iter.     Column Row Layer    Maximum-Head-Change  Column Row Layer    Maximum-Flux-Residual          L2-NORM 
          0                 1           2             4    7     1       0.3991365833E-01       4    7    1         0.2110204920E+01      0.4465492923E+01
          0                 2           2             4    7     1      -0.3880456214E-02       4    7    1        -0.2109093264E+00      0.4463288724E+00
          0                 3           2             4    7     1       0.2640464099E-03       4    7    1         0.1475256978E-01      0.3122578112E-01
          0                 4           1             4    7     1      -0.1049355473E-04       4    7    1        -0.6026281631E-03      0.1275979702E-02

    ------------------------------------------------
       NWT REQUIRED            4 OUTER ITERATIONS 
       AND A TOTAL OF          7 INNER ITERATIONS.
    ------------------------------------------------

 NO OUTPUT CONTROL FOR STRESS PERIOD   24   TIME STEP    2
 
 SOLVING FOR HEAD 
                                                   Max.-Head-Change                         Max.-Flux-Residual
  Residual-Control   Outer-Iter.   Inner-Iter.     Column Row Layer    Maximum-Head-Change  Column Row Layer    Maximum-Flux-Residual          L2-NORM 
          0                 1           2             4    7     1       0.3924053639E-01       4    7    1         0.2073829175E+01      0.4412149667E+01
          0                 2           2             4    7     1      -0.3815013432E-02       4    7    1        -0.2072735625E+00      0.4410409065E+00
          0                 3           2             4    7     1       0.2595932883E-03       4    7    1         0.1449825382E-01      0.3085587959E-01
          0                 4           1             4    7     1      -0.1031657748E-04       4    7    1        -0.5922393182E-03      0.1260861056E-02

    ------------------------------------------------
       NWT REQUIRED            4 OUTER ITERATIONS 
       AND A TOTAL OF          7 INNER ITERATIONS.
    ------------------------------------------------

 NO OUTPUT CONTROL FOR STRESS PERIOD   24   TIME STEP    3
 
 SOLVING FOR HEAD 
                                                   Max.-Head-Change                         Max.-Flux-Residual
  Residual-Control   Outer-Iter.   Inner-Iter.     Column Row Layer    Maximum-Head-Change  Column Row Layer    Maximum-Flux-Residual          L2-NORM 
          0                 1           2             4    7     1       0.3859281575E-01       4    7    1         0.2038863027E+01      0.4360264990E+01
          0                 2           2             4    7     1      -0.3752039746E-02       4    7    1        -0.2037786923E+00      0.4358545220E+00
          0                 3           2             4    7     1       0.2553081820E-03       4    7    1         0.1425379334E-01      0.3049289994E-01
          0                 4           1             4    7     1      -0.1014627820E-04       4    7    1        -0.5822530982E-03      0.1246034894E-02

    ------------------------------------------------
       NWT REQUIRED            4 OUTER ITERATIONS 
       AND A TOTAL OF          7 INNER ITERATIONS.
    ------------------------------------------------

 NO OUTPUT CONTROL FOR STRESS PERIOD   24   TIME STEP    4
 
 SOLVING FOR HEAD 
                                                   Max.-Head-Change                         Max.-Flux-Residual
  Residual-Control   Outer-Iter.   Inner-Iter.     Column Row Layer    Maximum-Head-Change  Column Row Layer    Maximum-Flux-Residual          L2-NORM 
          0                 1           2             4    7     1       0.3796872041E-01       4    7    1         0.2005206619E+01      0.4309684185E+01
          0                 2           2             4    7     1      -0.3691363057E-02       4    7    1        -0.2004147349E+00      0.4307987656E+00
          0                 3           2             4    7     1       0.2511793791E-03       4    7    1         0.1401849012E-01      0.3013935779E-01
          0                 4           1             4    7     1      -0.9982190512E-05       4    7    1        -0.5726409529E-03      0.1231564420E-02

    ------------------------------------------------
       NWT REQUIRED            4 OUTER ITERATIONS 
       AND A TOTAL OF          7 INNER ITERATIONS.
    ------------------------------------------------

 NO OUTPUT CONTROL FOR STRESS PERIOD   24   TIME STEP    5
 
 SOLVING FOR HEAD 
                                                   Max.-Head-Change                         Max.-Flux-Residual
  Residual-Control   Outer-Iter.   Inner-Iter.     Column Row Layer    Maximum-Head-Change  Column Row Layer    Maximum-Flux-Residual          L2-NORM 
          0                 1           2             4    7     1       0.3736673825E-01       4    7    1         0.1972775140E+01      0.4260332941E+01
          0                 2           2             4    7     1      -0.3632836349E-02       4    7    1        -0.1971732130E+00      0.4258658612E+00
          0                 3           2             4    7     1       0.2471968765E-03       4    7    1         0.1379175123E-01      0.2979427612E-01
          0                 4           1             4    7     1      -0.9823917232E-05       4    7    1        -0.5633786618E-03      0.1217542592E-02

    ------------------------------------------------
       NWT REQUIRED            4 OUTER ITERATIONS 
       AND A TOTAL OF          7 INNER ITERATIONS.
    ------------------------------------------------

 NO OUTPUT CONTROL FOR STRESS PERIOD   24   TIME STEP    6
 
 SOLVING FOR HEAD 
                                                   Max.-Head-Change                         Max.-Flux-Residual
  Residual-Control   Outer-Iter.   Inner-Iter.     Column Row Layer    Maximum-Head-Change  Column Row Layer    Maximum-Flux-Residual          L2-NORM 
          0                 1           2             4    7     1       0.3678574046E-01       4    7    1         0.1941504800E+01      0.4212141998E+01
          0                 2           2             4    7     1      -0.3576349868E-02       4    7    1        -0.1940477503E+00      0.4210487312E+00
          0                 3           2             4    7     1       0.2433532055E-03       4    7    1         0.1357313061E-01      0.2945724866E-01
          0                 4           1             4    7     1      -0.9671161787E-05       4    7    1        -0.5544480341E-03      0.1203707816E-02

    ------------------------------------------------
       NWT REQUIRED            4 OUTER ITERATIONS 
       AND A TOTAL OF          7 INNER ITERATIONS.
    ------------------------------------------------

 NO OUTPUT CONTROL FOR STRESS PERIOD   24   TIME STEP    7
 
 SOLVING FOR HEAD 
                                                   Max.-Head-Change                         Max.-Flux-Residual
  Residual-Control   Outer-Iter.   Inner-Iter.     Column Row Layer    Maximum-Head-Change  Column Row Layer    Maximum-Flux-Residual          L2-NORM 
          0                 1           2             4    7     1       0.3622429234E-01       4    7    1         0.1911315158E+01      0.4165044790E+01
          0                 2           2             4    7     1      -0.3521764122E-02       4    7    1        -0.1910303065E+00      0.4163409994E+00
          0                 3           2             4    7     1       0.2396388736E-03       4    7    1         0.1336206585E-01      0.2912790447E-01
          0                 4           1             4    7     1      -0.9523546329E-05       4    7    1        -0.5458260523E-03      0.1190255156E-02

    ------------------------------------------------
       NWT REQUIRED            4 OUTER ITERATIONS 
       AND A TOTAL OF          7 INNER ITERATIONS.
    ------------------------------------------------

 NO OUTPUT CONTROL FOR STRESS PERIOD   24   TIME STEP    8
 
 SOLVING FOR HEAD 
                                                   Max.-Head-Change                         Max.-Flux-Residual
  Residual-Control   Outer-Iter.   Inner-Iter.     Column Row Layer    Maximum-Head-Change  Column Row Layer    Maximum-Flux-Residual          L2-NORM 
          0                 1           2             4    7     1       0.3568119880E-01       4    7    1         0.1882139130E+01      0.4118983910E+01
          0                 2           2             4    7     1      -0.3468962918E-02       4    7    1        -0.1881141763E+00      0.4117368793E+00
          0                 3           2             4    7     1       0.2360459747E-03       4    7    1         0.1315808793E-01      0.2880579147E-01
          0                 4           1             4    7     1      -0.9380757366E-05       4    7    1        -0.5374935868E-03      0.1177076808E-02

    ------------------------------------------------
       NWT REQUIRED            4 OUTER ITERATIONS 
       AND A TOTAL OF          7 INNER ITERATIONS.
    ------------------------------------------------

 NO OUTPUT CONTROL FOR STRESS PERIOD   24   TIME STEP    9
 
 SOLVING FOR HEAD 
                                                   Max.-Head-Change                         Max.-Flux-Residual
  Residual-Control   Outer-Iter.   Inner-Iter.     Column Row Layer    Maximum-Head-Change  Column Row Layer    Maximum-Flux-Residual          L2-NORM 
          0                 1           2             4    7     1       0.3515562042E-01       4    7    1         0.1853929368E+01      0.4073923807E+01
          0                 2           2             4    7     1      -0.3417864637E-02       4    7    1        -0.1852946270E+00      0.4072328022E+00
          0                 3           2             4    7     1       0.2325689545E-03       4    7    1         0.1296086577E-01      0.2849069564E-01
          0                 4           1             4    7     1      -0.9242574197E-05       4    7    1        -0.5294371042E-03      0.1164199436E-02

    ------------------------------------------------
       NWT REQUIRED            4 OUTER ITERATIONS 
       AND A TOTAL OF          7 INNER ITERATIONS.
    ------------------------------------------------

 NO OUTPUT CONTROL FOR STRESS PERIOD   24   TIME STEP   10
 
 SOLVING FOR HEAD 
                                                   Max.-Head-Change                         Max.-Flux-Residual
  Residual-Control   Outer-Iter.   Inner-Iter.     Column Row Layer    Maximum-Head-Change  Column Row Layer    Maximum-Flux-Residual          L2-NORM 
          0                 1           2             4    7     1       0.3464625443E-01       4    7    1         0.1826613121E+01      0.4029795678E+01
          0                 2           2             4    7     1      -0.3368342618E-02       4    7    1        -0.1825643868E+00      0.4028216443E+00
          0                 3           2             4    7     1       0.2291991939E-03       4    7    1         0.1276989073E-01      0.2818214141E-01
          0                 4           1             4    7     1      -0.9108653282E-05       4    7    1        -0.5216358238E-03      0.1151611423E-02

    ------------------------------------------------
       NWT REQUIRED            4 OUTER ITERATIONS 
       AND A TOTAL OF          7 INNER ITERATIONS.
    ------------------------------------------------

 NO OUTPUT CONTROL FOR STRESS PERIOD   24   TIME STEP   11
 
 SOLVING FOR HEAD 
                                                   Max.-Head-Change                         Max.-Flux-Residual
  Residual-Control   Outer-Iter.   Inner-Iter.     Column Row Layer    Maximum-Head-Change  Column Row Layer    Maximum-Flux-Residual          L2-NORM 
          0                 1           2             4    7     1       0.3415255226E-01       4    7    1         0.1800159381E+01      0.3986567456E+01
          0                 2           2             4    7     1      -0.3320343524E-02       4    7    1        -0.1799203562E+00      0.3985009252E+00
          0                 3           2             4    7     1       0.2259330632E-03       4    7    1         0.1258494597E-01      0.2787985791E-01
          0                 4           1             4    7     1      -0.8978850827E-05       4    7    1        -0.5140808678E-03      0.1139258477E-02

    ------------------------------------------------
       NWT REQUIRED            4 OUTER ITERATIONS 
       AND A TOTAL OF          7 INNER ITERATIONS.
    ------------------------------------------------

 NO OUTPUT CONTROL FOR STRESS PERIOD   24   TIME STEP   12
 
 SOLVING FOR HEAD 
                                                   Max.-Head-Change                         Max.-Flux-Residual
  Residual-Control   Outer-Iter.   Inner-Iter.     Column Row Layer    Maximum-Head-Change  Column Row Layer    Maximum-Flux-Residual          L2-NORM 
          0                 1           2             4    7     1       0.3367321983E-01       4    7    1         0.1774495857E+01      0.3944199150E+01
          0                 2           2             4    7     1      -0.3273741534E-02       4    7    1        -0.1773553097E+00      0.3942636484E+00
          0                 3           2             4    7     1       0.2227620018E-03       4    7    1         0.1240552608E-01      0.2758405811E-01
          0                 4           1             4    7     1      -0.8852827090E-05       4    7    1        -0.5067516286E-03      0.1127154222E-02

    ------------------------------------------------
       NWT REQUIRED            4 OUTER ITERATIONS 
       AND A TOTAL OF          7 INNER ITERATIONS.
    ------------------------------------------------

 NO OUTPUT CONTROL FOR STRESS PERIOD   24   TIME STEP   13
 
 SOLVING FOR HEAD 
                                                   Max.-Head-Change                         Max.-Flux-Residual
  Residual-Control   Outer-Iter.   Inner-Iter.     Column Row Layer    Maximum-Head-Change  Column Row Layer    Maximum-Flux-Residual          L2-NORM 
          0                 1           2             4    7     1       0.3320785094E-01       4    7    1         0.1749599304E+01      0.3902666360E+01
          0                 2           2             4    7     1      -0.3228497121E-02       4    7    1        -0.1748669236E+00      0.3900856103E+00
          0                 3           2             4    7     1       0.2196833177E-03       4    7    1         0.1223146852E-01      0.2729113523E-01
          0                 4           1             4    7     1      -0.8730474772E-05       4    7    1        -0.4996414475E-03      0.1115192632E-02

    ------------------------------------------------
       NWT REQUIRED            4 OUTER ITERATIONS 
       AND A TOTAL OF          7 INNER ITERATIONS.
    ------------------------------------------------

 NO OUTPUT CONTROL FOR STRESS PERIOD   24   TIME STEP   14
 
 SOLVING FOR HEAD 
                                                   Max.-Head-Change                         Max.-Flux-Residual
  Residual-Control   Outer-Iter.   Inner-Iter.     Column Row Layer    Maximum-Head-Change  Column Row Layer    Maximum-Flux-Residual          L2-NORM 
          0                 1           2             4    7     1       0.3275540462E-01       4    7    1         0.1725412118E+01      0.3861944465E+01
          0                 2           2             4    7     1      -0.3184509174E-02       4    7    1        -0.1724494402E+00      0.3860440082E+00
          0                 3           2             4    7     1       0.2166901329E-03       4    7    1         0.1206237056E-01      0.2700836932E-01
          0                 4           1             4    7     1      -0.8611520331E-05       4    7    1        -0.4927338612E-03      0.1103632681E-02

    ------------------------------------------------
       NWT REQUIRED            4 OUTER ITERATIONS 
       AND A TOTAL OF          7 INNER ITERATIONS.
    ------------------------------------------------

 NO OUTPUT CONTROL FOR STRESS PERIOD   24   TIME STEP   15
 
 SOLVING FOR HEAD 
                                                   Max.-Head-Change                         Max.-Flux-Residual
  Residual-Control   Outer-Iter.   Inner-Iter.     Column Row Layer    Maximum-Head-Change  Column Row Layer    Maximum-Flux-Residual          L2-NORM 
          0                 1           2             4    7     1       0.3231544593E-01       4    7    1         0.1701909560E+01      0.3821981844E+01
          0                 2           2             4    7     1      -0.3141735308E-02       4    7    1        -0.1701003869E+00      0.3820494557E+00
          0                 3           2             4    7     1       0.2137795624E-03       4    7    1         0.1189805923E-01      0.2672894111E-01
          0                 4           1             4    7     1      -0.8495849213E-05       4    7    1        -0.4860218232E-03      0.1092214671E-02

    ------------------------------------------------
       NWT REQUIRED            4 OUTER ITERATIONS 
       AND A TOTAL OF          7 INNER ITERATIONS.
    ------------------------------------------------

 NO OUTPUT CONTROL FOR STRESS PERIOD   24   TIME STEP   16
 
 SOLVING FOR HEAD 
                                                   Max.-Head-Change                         Max.-Flux-Residual
  Residual-Control   Outer-Iter.   Inner-Iter.     Column Row Layer    Maximum-Head-Change  Column Row Layer    Maximum-Flux-Residual          L2-NORM 
          0                 1           2             4    7     1       0.3188731206E-01       4    7    1         0.1679054466E+01      0.3782752030E+01
          0                 2           2             4    7     1      -0.3100111109E-02       4    7    1        -0.1678160486E+00      0.3781281868E+00
          0                 3           2             4    7     1       0.2109472222E-03       4    7    1         0.1173827462E-01      0.2645461872E-01
          0                 4           1             4    7     1      -0.8383287231E-05       4    7    1        -0.4794946929E-03      0.1081024906E-02

    ------------------------------------------------
       NWT REQUIRED            4 OUTER ITERATIONS 
       AND A TOTAL OF          7 INNER ITERATIONS.
    ------------------------------------------------

 NO OUTPUT CONTROL FOR STRESS PERIOD   24   TIME STEP   17
 
 SOLVING FOR HEAD 
                                                   Max.-Head-Change                         Max.-Flux-Residual
  Residual-Control   Outer-Iter.   Inner-Iter.     Column Row Layer    Maximum-Head-Change  Column Row Layer    Maximum-Flux-Residual          L2-NORM 
          0                 1           2             4    7     1       0.3147025164E-01       4    7    1         0.1656805155E+01      0.3744236534E+01
          0                 2           2             4    7     1      -0.3059563527E-02       4    7    1        -0.1655922596E+00      0.3742782950E+00
          0                 3           2             4    7     1       0.2081881421E-03       4    7    1         0.1158272539E-01      0.2618530533E-01
          0                 4           1             4    7     1      -0.8273636596E-05       4    7    1        -0.4731405738E-03      0.1070024129E-02

    ------------------------------------------------
       NWT REQUIRED            4 OUTER ITERATIONS 
       AND A TOTAL OF          7 INNER ITERATIONS.
    ------------------------------------------------

 NO OUTPUT CONTROL FOR STRESS PERIOD   24   TIME STEP   18
 
 SOLVING FOR HEAD 
                                                   Max.-Head-Change                         Max.-Flux-Residual
  Residual-Control   Outer-Iter.   Inner-Iter.     Column Row Layer    Maximum-Head-Change  Column Row Layer    Maximum-Flux-Residual          L2-NORM 
          0                 1           2             4    7     1       0.3106369820E-01       4    7    1         0.1635129983E+01      0.3706398789E+01
          0                 2           2             4    7     1      -0.3020037483E-02       4    7    1        -0.1634258566E+00      0.3704961688E+00
          0                 3           2             4    7     1       0.2054985744E-03       4    7    1         0.1143119023E-01      0.2592070245E-01
          0                 4           1             4    7     1      -0.8166748793E-05       4    7    1        -0.4669504531E-03      0.1059205423E-02

    ------------------------------------------------
       NWT REQUIRED            4 OUTER ITERATIONS 
       AND A TOTAL OF          7 INNER ITERATIONS.
    ------------------------------------------------

 NO OUTPUT CONTROL FOR STRESS PERIOD   24   TIME STEP   19
 
 SOLVING FOR HEAD 
                                                   Max.-Head-Change                         Max.-Flux-Residual
  Residual-Control   Outer-Iter.   Inner-Iter.     Column Row Layer    Maximum-Head-Change  Column Row Layer    Maximum-Flux-Residual          L2-NORM 
          0                 1           2             4    7     1       0.3066739221E-01       4    7    1         0.1614014201E+01      0.3669225603E+01
          0                 2           2             4    7     1      -0.2981507745E-02       4    7    1        -0.1613153656E+00      0.3667804965E+00
          0                 3           2             4    7     1       0.2028768020E-03       4    7    1         0.1128356607E-01      0.2566078947E-01
          0                 4           1             4    7     1      -0.8062555437E-05       4    7    1        -0.4609200923E-03      0.1048677931E-02

    ------------------------------------------------
       NWT REQUIRED            4 OUTER ITERATIONS 
       AND A TOTAL OF          7 INNER ITERATIONS.
    ------------------------------------------------

 NO OUTPUT CONTROL FOR STRESS PERIOD   24   TIME STEP   20
 
 SOLVING FOR HEAD 
                                                   Max.-Head-Change                         Max.-Flux-Residual
  Residual-Control   Outer-Iter.   Inner-Iter.     Column Row Layer    Maximum-Head-Change  Column Row Layer    Maximum-Flux-Residual          L2-NORM 
          0                 1           2             4    7     1       0.3028069480E-01       4    7    1         0.1593422419E+01      0.3632687248E+01
          0                 2           2             4    7     1      -0.2943908810E-02       4    7    1        -0.1592572491E+00      0.3630377515E+00
          0                 3           2             4    7     1       0.2003183674E-03       4    7    1         0.1113960546E-01      0.2539893955E-01
          0                 4           1             4    7     1      -0.7960879115E-05       4    7    1        -0.4550393833E-03      0.1037894180E-02

    ------------------------------------------------
       NWT REQUIRED            4 OUTER ITERATIONS 
       AND A TOTAL OF          7 INNER ITERATIONS.
    ------------------------------------------------

 NO OUTPUT CONTROL FOR STRESS PERIOD   24   TIME STEP   21
 
 SOLVING FOR HEAD 
                                                   Max.-Head-Change                         Max.-Flux-Residual
  Residual-Control   Outer-Iter.   Inner-Iter.     Column Row Layer    Maximum-Head-Change  Column Row Layer    Maximum-Flux-Residual          L2-NORM 
          0                 1           2             4    7     1       0.2990316110E-01       4    7    1         0.1573329005E+01      0.3596854285E+01
          0                 2           2             4    7     1      -0.2907207589E-02       4    7    1        -0.1572489449E+00      0.3595465284E+00
          0                 3           2             4    7     1       0.1978210180E-03       4    7    1         0.1099912912E-01      0.2515470006E-01
          0                 4           1             4    7     1      -0.7861630374E-05       4    7    1        -0.4493010165E-03      0.1027890134E-02

    ------------------------------------------------
       NWT REQUIRED            4 OUTER ITERATIONS 
       AND A TOTAL OF          7 INNER ITERATIONS.
    ------------------------------------------------

 NO OUTPUT CONTROL FOR STRESS PERIOD   24   TIME STEP   22
 
 SOLVING FOR HEAD 
                                                   Max.-Head-Change                         Max.-Flux-Residual
  Residual-Control   Outer-Iter.   Inner-Iter.     Column Row Layer    Maximum-Head-Change  Column Row Layer    Maximum-Flux-Residual          L2-NORM 
          0                 1           2             4    7     1       0.2953435101E-01       4    7    1         0.1553710351E+01      0.3561653199E+01
          0                 2           2             4    7     1      -0.2871351126E-02       4    7    1        -0.1552880937E+00      0.3560279467E+00
          0                 3           2             4    7     1       0.1953811517E-03       4    7    1         0.1086197205E-01      0.2490853986E-01
          0                 4           1             4    7     1      -0.7764666455E-05       4    7    1        -0.4436982449E-03      0.1017845457E-02

    ------------------------------------------------
       NWT REQUIRED            4 OUTER ITERATIONS 
       AND A TOTAL OF          7 INNER ITERATIONS.
    ------------------------------------------------

 NO OUTPUT CONTROL FOR STRESS PERIOD   24   TIME STEP   23
 
 SOLVING FOR HEAD 
                                                   Max.-Head-Change                         Max.-Flux-Residual
  Residual-Control   Outer-Iter.   Inner-Iter.     Column Row Layer    Maximum-Head-Change  Column Row Layer    Maximum-Flux-Residual          L2-NORM 
          0                 1           2             4    7     1       0.2917400268E-01       4    7    1         0.1534551495E+01      0.3527037688E+01
          0                 2           2             4    7     1      -0.2836317351E-02       4    7    1        -0.1533731996E+00      0.3525679128E+00
          0                 3           2             4    7     1       0.1929972659E-03       4    7    1         0.1072802963E-01      0.2466649074E-01
          0                 4           1             4    7     1      -0.7669926801E-05       4    7    1        -0.4382267709E-03      0.1007959449E-02

    ------------------------------------------------
       NWT REQUIRED            4 OUTER ITERATIONS 
       AND A TOTAL OF          7 INNER ITERATIONS.
    ------------------------------------------------

 NO OUTPUT CONTROL FOR STRESS PERIOD   24   TIME STEP   24
 
 SOLVING FOR HEAD 
                                                   Max.-Head-Change                         Max.-Flux-Residual
  Residual-Control   Outer-Iter.   Inner-Iter.     Column Row Layer    Maximum-Head-Change  Column Row Layer    Maximum-Flux-Residual          L2-NORM 
          0                 1           2             4    7     1       0.2882173858E-01       4    7    1         0.1515831364E+01      0.3492986369E+01
          0                 2           2             4    7     1      -0.2802069610E-02       4    7    1        -0.1515021566E+00      0.3491643068E+00
          0                 3           2             4    7     1       0.1906668666E-03       4    7    1         0.1059715456E-01      0.2442837152E-01
          0                 4           1             4    7     1      -0.7577313554E-05       4    7    1        -0.4328806206E-03      0.9982197745E-03

    ------------------------------------------------
       NWT REQUIRED            4 OUTER ITERATIONS 
       AND A TOTAL OF          7 INNER ITERATIONS.
    ------------------------------------------------

 NO OUTPUT CONTROL FOR STRESS PERIOD   24   TIME STEP   25
 
 SOLVING FOR HEAD 
                                                   Max.-Head-Change                         Max.-Flux-Residual
  Residual-Control   Outer-Iter.   Inner-Iter.     Column Row Layer    Maximum-Head-Change  Column Row Layer    Maximum-Flux-Residual          L2-NORM 
          0                 1           2             4    7     1       0.2847706935E-01       4    7    1         0.1497523070E+01      0.3459481306E+01
          0                 2           2             4    7     1      -0.2768560251E-02       4    7    1        -0.1496722769E+00      0.3458152977E+00
          0                 3           2             4    7     1       0.1883867119E-03       4    7    1         0.1046915878E-01      0.2419409972E-01
          0                 4           1             4    7     1      -0.7486696850E-05       4    7    1        -0.4276520913E-03      0.9886654246E-03

    ------------------------------------------------
       NWT REQUIRED            4 OUTER ITERATIONS 
       AND A TOTAL OF          7 INNER ITERATIONS.
    ------------------------------------------------

 NO OUTPUT CONTROL FOR STRESS PERIOD   24   TIME STEP   26
 
 SOLVING FOR HEAD 
                                                   Max.-Head-Change                         Max.-Flux-Residual
  Residual-Control   Outer-Iter.   Inner-Iter.     Column Row Layer    Maximum-Head-Change  Column Row Layer    Maximum-Flux-Residual          L2-NORM 
          0                 1           2             4    7     1       0.2813979958E-01       4    7    1         0.1479615871E+01      0.3426506824E+01
          0                 2           2             4    7     1      -0.2735770266E-02       4    7    1        -0.1478824871E+00      0.3425192871E+00
          0                 3           2             4    7     1       0.1861555081E-03       4    7    1         0.1034396724E-01      0.2396354154E-01
          0                 4           1             4    7     1      -0.7398025457E-05       4    7    1        -0.4225381115E-03      0.9792639562E-03

    ------------------------------------------------
       NWT REQUIRED            4 OUTER ITERATIONS 
       AND A TOTAL OF          7 INNER ITERATIONS.
    ------------------------------------------------

 NO OUTPUT CONTROL FOR STRESS PERIOD   24   TIME STEP   27
 
 SOLVING FOR HEAD 
                                                   Max.-Head-Change                         Max.-Flux-Residual
  Residual-Control   Outer-Iter.   Inner-Iter.     Column Row Layer    Maximum-Head-Change  Column Row Layer    Maximum-Flux-Residual          L2-NORM 
          0                 1           2             4    7     1       0.2780962123E-01       4    7    1         0.1462092322E+01      0.3394053821E+01
          0                 2           2             4    7     1      -0.2703669737E-02       4    7    1        -0.1461310432E+00      0.3392753834E+00
          0                 3           2             4    7     1       0.1839712184E-03       4    7    1         0.1022145792E-01      0.2373655141E-01
          0                 4           1             4    7     1      -0.7311218901E-05       4    7    1        -0.4175336960E-03      0.9699344760E-03

    ------------------------------------------------
       NWT REQUIRED            4 OUTER ITERATIONS 
       AND A TOTAL OF          7 INNER ITERATIONS.
    ------------------------------------------------

 NO OUTPUT CONTROL FOR STRESS PERIOD   24   TIME STEP   28
 
 SOLVING FOR HEAD 
                                                   Max.-Head-Change                         Max.-Flux-Residual
  Residual-Control   Outer-Iter.   Inner-Iter.     Column Row Layer    Maximum-Head-Change  Column Row Layer    Maximum-Flux-Residual          L2-NORM 
          0                 1           2             4    7     1       0.2748637397E-01       4    7    1         0.1444943766E+01      0.3362108926E+01
          0                 2           2             4    7     1      -0.2672243075E-02       4    7    1        -0.1444170801E+00      0.3360823193E+00
          0                 3           2             4    7     1       0.1818327830E-03       4    7    1         0.1010157032E-01      0.2351320732E-01
          0                 4           1             4    7     1      -0.7226234240E-05       4    7    1        -0.4126363901E-03      0.9608385398E-03

    ------------------------------------------------
       NWT REQUIRED            4 OUTER ITERATIONS 
       AND A TOTAL OF          7 INNER ITERATIONS.
    ------------------------------------------------

 NO OUTPUT CONTROL FOR STRESS PERIOD   24   TIME STEP   29
 
 SOLVING FOR HEAD 
                                                   Max.-Head-Change                         Max.-Flux-Residual
  Residual-Control   Outer-Iter.   Inner-Iter.     Column Row Layer    Maximum-Head-Change  Column Row Layer    Maximum-Flux-Residual          L2-NORM 
          0                 1           2             4    7     1       0.2716950939E-01       4    7    1         0.1428139941E+01      0.3330660480E+01
          0                 2           2             4    7     1      -0.2641436961E-02       4    7    1        -0.1427375730E+00      0.3329388387E+00
          0                 3           2             4    7     1       0.1797365735E-03       4    7    1         0.9984092888E-02      0.2329328876E-01
          0                 4           1             4    7     1      -0.7142927793E-05       4    7    1        -0.4078375241E-03      0.9518654278E-03

    ------------------------------------------------
       NWT REQUIRED            4 OUTER ITERATIONS 
       AND A TOTAL OF          7 INNER ITERATIONS.
    ------------------------------------------------

 NO OUTPUT CONTROL FOR STRESS PERIOD   24   TIME STEP   30



 STREAM LISTING     PERIOD     24   STEP       30

 LAYER ROW COL. STREAM  RCH.  FLOW INTO     FLOW TO   FLOW OUT OF   OVRLND.     DIRECT     STREAM       STREAM     STREAM     STREAM   STREAMBED  STREAMBED
                SEG.NO.  NO.  STRM. RCH.    AQUIFER    STRM. RCH.    RUNOFF     PRECIP       ET          HEAD       DEPTH      WIDTH   CONDCTNC.   GRADIENT

   1    1    1     1     1    2.1000E+01  2.2592E-01   2.0774E+01  0.000E+00  0.000E+00  0.000E+00  1.09416E+03  1.115E+00  1.220E+01  5.490E-02  1.372E+00
   1    2    2     1     2    2.0774E+01  3.4917E-01   2.0425E+01  0.000E+00  0.000E+00  0.000E+00  1.08917E+03  1.110E+00  1.214E+01  8.495E-02  1.370E+00
   1    3    3     1     3    2.0425E+01  2.9709E-01   2.0128E+01  0.000E+00  0.000E+00  0.000E+00  1.08352E+03  1.105E+00  1.206E+01  7.238E-02  1.368E+00
   1    3    4     1     4    2.0128E+01  2.7299E-01   1.9855E+01  0.000E+00  0.000E+00  0.000E+00  1.07851E+03  1.100E+00  1.200E+01  6.659E-02  1.367E+00
   1    4    5     2     1    1.7855E+01  3.1056E-01   1.7545E+01  0.000E+00  0.000E+00  0.000E+00  1.07292E+03  9.816E-01  1.200E+01  7.800E-02  1.327E+00
   1    5    6     2     2    1.7545E+01  2.3835E-01   1.7306E+01  0.000E+00  0.000E+00  0.000E+00  1.06748E+03  9.724E-01  1.200E+01  6.000E-02  1.324E+00
   1    6    6     2     3    1.7306E+01  2.3787E-01   1.7068E+01  0.000E+00  0.000E+00  0.000E+00  1.06276E+03  9.644E-01  1.200E+01  6.000E-02  1.321E+00
   1    7    6     2     4    1.7068E+01  2.3738E-01   1.6831E+01  0.000E+00  0.000E+00  0.000E+00  1.05803E+03  9.564E-01  1.200E+01  6.000E-02  1.319E+00
   1    8    6     2     5    1.6831E+01  2.3690E-01   1.6594E+01  0.000E+00  0.000E+00  0.000E+00  1.05331E+03  9.484E-01  1.200E+01  6.000E-02  1.316E+00
   1    3    5     3     1    2.0000E+00  2.8252E-01   1.7175E+00  0.000E+00  0.000E+00  0.000E+00  1.07555E+03  1.909E+00  9.636E+00  7.227E-02  1.955E+00
   1    3    6     3     2    1.7175E+00  2.4905E-01   1.4684E+00  0.000E+00  0.000E+00  0.000E+00  1.07264E+03  1.727E+00  8.909E+00  6.682E-02  1.864E+00
   1    3    7     3     3    1.4684E+00  1.9718E-01   1.2712E+00  0.000E+00  0.000E+00  0.000E+00  1.06987E+03  1.555E+00  8.218E+00  5.547E-02  1.777E+00
   1    4    8     3     4    1.2712E+00  2.2567E-01   1.0456E+00  0.000E+00  0.000E+00  0.000E+00  1.06682E+03  1.364E+00  7.455E+00  6.709E-02  1.682E+00
   1    5    8     3     5    1.0456E+00  1.5790E-01   8.8768E-01  0.000E+00  0.000E+00  0.000E+00  1.06362E+03  1.164E+00  6.655E+00  4.991E-02  1.582E+00
   1    6    8     3     6    8.8768E-01  5.5980E-02   8.3170E-01  0.000E+00  0.000E+00  0.000E+00  1.06158E+03  1.036E+00  6.145E+00  1.844E-02  1.518E+00
   1    5   10     4     1    1.0000E+01  9.0919E-02   9.9091E+00  0.000E+00  0.000E+00  0.000E+00  1.07836E+03  6.368E-01  1.000E+01  2.500E-02  1.212E+00
   1    5    9     4     2    9.9091E+00  1.8158E-01   9.7275E+00  0.000E+00  0.000E+00  0.000E+00  1.07154E+03  6.315E-01  1.000E+01  5.000E-02  1.211E+00
   1    6    8     4     3    9.7275E+00  1.2689E-01   9.6006E+00  0.000E+00  0.000E+00  0.000E+00  1.06381E+03  6.256E-01  1.000E+01  3.500E-02  1.209E+00
   1    6    8     5     1    1.0432E+01  2.2686E-01   1.0205E+01  0.000E+00  0.000E+00  0.000E+00  1.05868E+03  6.790E-01  1.542E+01  6.166E-02  1.226E+00
   1    7    7     5     2    1.0205E+01  2.7894E-01   9.9265E+00  0.000E+00  0.000E+00  0.000E+00  1.05417E+03  6.732E-01  1.519E+01  7.594E-02  1.224E+00
   1    8    7     5     3    9.9265E+00  1.9221E-01   9.7343E+00  0.000E+00  0.000E+00  0.000E+00  1.04992E+03  6.676E-01  1.497E+01  5.241E-02  1.223E+00
   1    8    6     5     4    9.7343E+00  1.3577E-01   9.5985E+00  0.000E+00  0.000E+00  0.000E+00  1.04691E+03  6.637E-01  1.482E+01  3.706E-02  1.221E+00
   1    9    6     6     1    2.6193E+01  2.5512E-01   2.5938E+01  0.000E+00  0.000E+00  0.000E+00  1.04398E+03  1.252E+00  1.200E+01  6.000E-02  1.417E+00
   1   10    7     6     2    2.5938E+01  2.5468E-01   2.5683E+01  0.000E+00  0.000E+00  0.000E+00  1.03943E+03  1.245E+00  1.200E+01  6.000E-02  1.415E+00
   1   11    7     6     3    2.5683E+01  2.5424E-01   2.5429E+01  0.000E+00  0.000E+00  0.000E+00  1.03487E+03  1.237E+00  1.200E+01  6.000E-02  1.412E+00
   1   12    7     6     4    2.5429E+01  2.5379E-01   2.5175E+01  0.000E+00  0.000E+00  0.000E+00  1.03032E+03  1.230E+00  1.200E+01  6.000E-02  1.410E+00
   1   13    7     6     5    2.5175E+01  3.4554E-03   2.5171E+01  0.000E+00  0.000E+00  0.000E+00  1.02714E+03  1.226E+00  1.200E+01  2.400E-02  4.799E-02
   1   14    9     7     1    1.5000E+02  1.3364E+00   1.4866E+02  0.000E+00  0.000E+00  0.000E+00  1.03987E+03  2.288E+00  5.529E+01  5.593E-01  7.965E-01
   1   13    8     7     2    1.4866E+02  1.8503E+00   1.4681E+02  0.000E+00  0.000E+00  0.000E+00  1.03478E+03  2.279E+00  5.526E+01  6.148E-01  1.003E+00
   1   13    7     7     3    1.4681E+02  1.5069E+00   1.4531E+02  0.000E+00  0.000E+00  0.000E+00  1.02969E+03  2.270E+00  5.522E+01  5.584E-01  8.995E-01
   1   13    6     8     1    1.7048E+02  9.6519E-01   1.6951E+02  0.000E+00  0.000E+00  0.000E+00  1.02483E+03  2.952E+00  4.281E+01  4.362E-01  7.376E-01
   1   13    5     8     2    1.6951E+02  2.2315E-01   1.6929E+02  0.000E+00  0.000E+00  0.000E+00  1.01857E+03  2.948E+00  4.275E+01  4.356E-01  1.707E-01
   1   13    4     8     3    1.6929E+02 -2.2592E+00   1.7155E+02  0.000E+00  0.000E+00  0.000E+00  1.01233E+03  2.955E+00  4.285E+01  4.366E+00 -1.725E-01
   1   13    3     8     4    1.7155E+02 -3.5808E+00   1.7513E+02  0.000E+00  0.000E+00  0.000E+00  1.00610E+03  2.974E+00  4.312E+01  4.394E+00 -2.716E-01
   1   13    2     8     5    1.7513E+02 -2.5691E+00   1.7770E+02  0.000E+00  0.000E+00  0.000E+00  9.99868E+02  2.993E+00  4.341E+01  4.423E+00 -1.936E-01
   1   13    1     8     6    1.7770E+02 -1.9876E+00   1.7969E+02  0.000E+00  0.000E+00  0.000E+00  9.94883E+02  3.008E+00  4.361E+01  2.667E+00 -2.484E-01





UNSATURATED ZONE PACKAGE VOLUMETRIC BUDGET FOR  TIME STEP    30 STRESS PERIOD   24
  ------------------------------------------------------------------------------



     CUMULATIVE VOLUMES      L**3       RATES FOR THIS TIME STEP      L**3/T
     ------------------                 ------------------------

           IN:                                      IN:
           ---                                      ---
        INFILTRATION =   921423107.4373          INFILTRATION =           0.8475

          OUT:                                     OUT:
          ----                                     ----
              UZF ET =   845239098.1562                UZF ET =           0.7500
        UZF RECHARGE =    75853134.0453          UZF RECHARGE =           0.0003

            IN - OUT =      330875.2358              IN - OUT =       9.7168E-02

          STORAGE:                                 STORAGE:
          --------                                 --------
      STORAGE CHANGE =      330879.1699        STORAGE CHANGE =       9.7168E-02

 PERCENT DISCREPANCY IS DIFFERENCE BETWEEN IN-OUT MINUS CHANGE IN STORAGE
 DIVIDED BY THE AVERAGE OF IN AND OUT TIMES 100

 PERCENT DISCREPANCY =           0.00     PERCENT DISCREPANCY =           0.00






1
  VOLUMETRIC BUDGET FOR AGRICULTURAL FIELDS AT  END OF TIME STEP   30, STRESS PERIOD  24
  ------------------------------------------------------------------------------

     CUMULATIVE VOLUMES      L**3       RATES FOR THIS TIME STEP      L**3/T
     ------------------                 ------------------------

           IN:                                      IN:
           ---                                      ---
               AG WELLS  =   870083328.0000                 AG WELLS  =           0.0000
      DIVERSION SEGMENTS =           0.0000        DIVERSION SEGMENTS =           0.0000
           GW IRRIGATION =           0.0000             GW IRRIGATION =           0.0000
           SW IRRIGATION =           0.0000             SW IRRIGATION =           0.0000
        SYSTEM LOSSES GW =           0.0000          SYSTEM LOSSES GW =           0.0000
        SYSTEM LOSSES SW =           0.0000          SYSTEM LOSSES SW =           0.0000

                TOTAL IN =   870083328.0000                  TOTAL IN =           0.0000

          OUT:                                     OUT:
          ----                                     ----
               AG WELLS  =           0.0000                 AG WELLS  =           0.0000
      DIVERSION SEGMENTS =           0.0000        DIVERSION SEGMENTS =           0.0000
           GW IRRIGATION =   870083328.0000             GW IRRIGATION =           0.0000
           SW IRRIGATION =           0.0000             SW IRRIGATION =           0.0000
        SYSTEM LOSSES GW =           0.0000          SYSTEM LOSSES GW =           0.0000
        SYSTEM LOSSES SW =           0.0000          SYSTEM LOSSES SW =           0.0000

               TOTAL OUT =   870083328.0000                 TOTAL OUT =           0.0000

                IN - OUT =           0.0000                  IN - OUT =           0.0000

     PERCENT DISCREPANCY =           0.00         PERCENT DISCREPANCY =           0.00



1
  VOLUMETRIC BUDGET FOR ENTIRE MODEL AT END OF TIME STEP   30, STRESS PERIOD  24
  ------------------------------------------------------------------------------

     CUMULATIVE VOLUMES      L**3       RATES FOR THIS TIME STEP      L**3/T
     ------------------                 ------------------------

           IN:                                      IN:
           ---                                      ---
             STORAGE     =  1122075392.0000               STORAGE     =           9.4186
       CONSTANT HEAD     =           0.0000         CONSTANT HEAD     =           0.0000
     HEAD DEP BOUNDS     =    17292296.0000       HEAD DEP BOUNDS     =           0.2858
      STREAM LEAKAGE     =   754187968.0000        STREAM LEAKAGE     =          11.7110
        UZF RECHARGE     =    75853176.0000          UZF RECHARGE     =       3.3179E-04
               GW ET     =           0.0000                 GW ET     =           0.0000
     SURFACE LEAKAGE     =           0.0000       SURFACE LEAKAGE     =           0.0000
           AG WELLS      =           0.0000             AG WELLS      =           0.0000

                TOTAL IN =  1969408896.0000                  TOTAL IN =          21.4157

          OUT:                                     OUT:
          ----                                     ----
             STORAGE     =   435854592.0000               STORAGE     =          10.7291
       CONSTANT HEAD     =           0.0000         CONSTANT HEAD     =           0.0000
     HEAD DEP BOUNDS     =    17823878.0000       HEAD DEP BOUNDS     =           0.2899
      STREAM LEAKAGE     =   628034624.0000        STREAM LEAKAGE     =          10.3967
        UZF RECHARGE     =           0.0000          UZF RECHARGE     =           0.0000
               GW ET     =    17607600.0000                 GW ET     =           0.0000
     SURFACE LEAKAGE     =           0.0000       SURFACE LEAKAGE     =           0.0000
           AG WELLS      =   870083328.0000             AG WELLS      =           0.0000

               TOTAL OUT =  1969404032.0000                 TOTAL OUT =          21.4157

                IN - OUT =        4864.0000                  IN - OUT =       7.6294E-06

     PERCENT DISCREPANCY =           0.00         PERCENT DISCREPANCY =           0.00






         TIME SUMMARY AT END OF TIME STEP   30 IN STRESS PERIOD   24
                    SECONDS     MINUTES      HOURS       DAYS        YEARS
                    -----------------------------------------------------------
   TIME STEP LENGTH  87667.      1461.1      24.352      1.0147     2.77799E-03
 STRESS PERIOD TIME 2.63000E+06  43833.      730.56      30.440     8.33397E-02
         TOTAL TIME 6.05767E+07 1.00961E+06  16827.      701.12      1.9196    
1
1
                            STRESS PERIOD NO.   25, LENGTH =   2630000.    
                            -----------------------------------------------

                              NUMBER OF TIME STEPS =    30

                               MULTIPLIER FOR DELT =     1.000

                            INITIAL TIME STEP SIZE =   87666.66    

 REUSING NON-PARAMETER GHB CELLS FROM LAST STRESS PERIOD

      2 GHB CELLS

 REUSING STREAM SEGMENT DATA FROM LAST STRESS PERIOD



            AREAL INFILTRATION RATE
 READING ON UNIT   19 WITH FORMAT: (FREE)              

            1           2           3           4           5           6           7           8           9          10
 ........................................................................................................................
   1   1.0000E-10  2.0000E-10   0.000       0.000       0.000       0.000       0.000       0.000       0.000       0.000    
   2   2.0000E-10  1.0000E-10  2.0000E-10   0.000       0.000      8.0000E-10  8.0000E-10  5.0000E-10   0.000       0.000    
   3    0.000      5.0000E-10  1.0000E-10  1.0000E-10  8.0000E-10  8.0000E-10  5.0000E-10  5.0000E-10   0.000       0.000    
   4   8.0000E-10  5.0000E-10  1.0000E-10  1.0000E-10  1.0000E-10  1.0000E-10  1.0000E-10  1.0000E-10  2.0000E-10   0.000    
   5   8.0000E-10  5.0000E-10  1.0000E-10  1.0000E-10  1.0000E-10  1.0000E-10  1.0000E-10  1.0000E-10  1.0000E-10  1.0000E-10
   6   8.0000E-10  5.0000E-10  5.0000E-10  2.0000E-10  2.0000E-10  1.0000E-10  1.0000E-10  1.0000E-10  1.0000E-10  5.0000E-10
   7   8.0000E-10  5.0000E-10  5.0000E-10  2.0000E-10  2.0000E-10  1.0000E-10  1.0000E-10  2.0000E-10  2.0000E-10   0.000    
   8    0.000      5.0000E-10  5.0000E-10  2.0000E-10  2.0000E-10  1.0000E-10  1.0000E-10  2.0000E-10  5.0000E-10   0.000    
   9    0.000      5.0000E-10  5.0000E-10  2.0000E-10  2.0000E-10  1.0000E-10  1.0000E-10  2.0000E-10  5.0000E-10   0.000    
  10    0.000      5.0000E-10  5.0000E-10  2.0000E-10  2.0000E-10  1.0000E-10  1.0000E-10  2.0000E-10  5.0000E-10  8.0000E-10
  11    0.000      1.0000E-10  1.0000E-10  1.0000E-10  1.0000E-10  1.0000E-10  1.0000E-10  2.0000E-10  5.0000E-10   0.000    
  12   1.0000E-10  1.0000E-10  1.0000E-10  1.0000E-10  1.0000E-10  1.0000E-10  1.0000E-10  1.0000E-10  2.0000E-10   0.000    
  13   1.0000E-10  1.0000E-10  2.0000E-10  2.0000E-10  2.0000E-10  2.0000E-10  2.0000E-10  1.0000E-10  1.0000E-10   0.000    
  14    0.000      2.0000E-10  5.0000E-10  5.0000E-10  5.0000E-10  5.0000E-10  5.0000E-10  2.0000E-10  1.0000E-10   0.000    
  15    0.000       0.000      8.0000E-10  8.0000E-10  8.0000E-10  8.0000E-10   0.000       0.000       0.000       0.000    

                  ET RATE =  5.000000E-10

 USING ET EXTINCTION DEPTH FROM PREVIOUS STRESS PERIOD. CURRENT PERIOD IS:      25

 USING EXTINCTION WATER CONTENT FROM PREVIOUS STRESS PERIOD. CURRENT PERIOD IS:      25

 USING AIR ENTRY PRESSURE FROM PREVIOUS STRESS PERIOD. CURRENT PERIOD IS:      25

 USING ROOT PRESSURE HEAD FROM PREVIOUS STRESS PERIOD. CURRENT PERIOD IS:      25

 USING ROOT ACTIVITY FROM PREVIOUS STRESS PERIOD. CURRENT PERIOD IS:      25

 PROCESSING AG STRESS PERIOD DATA

 READING AG STRESS PERIOD DATA

 READING IRRIGATION WELL

 END PROCESSING AG STRESS PERIOD DATA OPTIONS
 
 SOLVING FOR HEAD 
                                                   Max.-Head-Change                         Max.-Flux-Residual
  Residual-Control   Outer-Iter.   Inner-Iter.     Column Row Layer    Maximum-Head-Change  Column Row Layer    Maximum-Flux-Residual          L2-NORM 
          0                 1           2             4    7     1       0.2685903689E-01       4    7    1         0.1411681680E+01      0.3301153691E+01
          0                 2           2             4    7     1      -0.2611252309E-02       4    7    1        -0.1410926050E+00      0.3299867506E+00
          0                 3           2             4    7     1       0.1776826519E-03       4    7    1         0.9869031408E-02      0.2308654243E-01
          0                 4           1             4    7     1      -0.7061302094E-05       4    7    1        -0.4031373510E-03      0.9433791395E-03

    ------------------------------------------------
       NWT REQUIRED            4 OUTER ITERATIONS 
       AND A TOTAL OF          7 INNER ITERATIONS.
    ------------------------------------------------

 NO OUTPUT CONTROL FOR STRESS PERIOD   25   TIME STEP    1
 
 SOLVING FOR HEAD 
                                                   Max.-Head-Change                         Max.-Flux-Residual
  Residual-Control   Outer-Iter.   Inner-Iter.     Column Row Layer    Maximum-Head-Change  Column Row Layer    Maximum-Flux-Residual          L2-NORM 
          0                 1           2             4    7     1       0.2655457250E-01       4    7    1         0.1395547519E+01      0.3271235411E+01
          0                 2           2             4    7     1      -0.2581651788E-02       4    7    1        -0.1394800310E+00      0.3269952433E+00
          0                 3           2             4    7     1       0.1756684782E-03       4    7    1         0.9756235826E-02      0.2287713644E-01
          0                 4           1             4    7     1      -0.6981256061E-05       4    7    1        -0.3985297576E-03      0.9348394507E-03

    ------------------------------------------------
       NWT REQUIRED            4 OUTER ITERATIONS 
       AND A TOTAL OF          7 INNER ITERATIONS.
    ------------------------------------------------

 NO OUTPUT CONTROL FOR STRESS PERIOD   25   TIME STEP    2
 
 SOLVING FOR HEAD 
                                                   Max.-Head-Change                         Max.-Flux-Residual
  Residual-Control   Outer-Iter.   Inner-Iter.     Column Row Layer    Maximum-Head-Change  Column Row Layer    Maximum-Flux-Residual          L2-NORM 
          0                 1           2             4    7     1       0.2625589137E-01       4    7    1         0.1379724868E+01      0.3241139649E+01
          0                 2           2             4    7     1      -0.2552613534E-02       4    7    1        -0.1378985923E+00      0.3239873556E+00
          0                 3           2             4    7     1       0.1736925644E-03       4    7    1         0.9645618125E-02      0.2266679351E-01
          0                 4           1             4    7     1      -0.6902730633E-05       4    7    1        -0.3940111110E-03      0.9262198197E-03

    ------------------------------------------------
       NWT REQUIRED            4 OUTER ITERATIONS 
       AND A TOTAL OF          7 INNER ITERATIONS.
    ------------------------------------------------

 NO OUTPUT CONTROL FOR STRESS PERIOD   25   TIME STEP    3
 
 SOLVING FOR HEAD 
                                                   Max.-Head-Change                         Max.-Flux-Residual
  Residual-Control   Outer-Iter.   Inner-Iter.     Column Row Layer    Maximum-Head-Change  Column Row Layer    Maximum-Flux-Residual          L2-NORM 
          0                 1           2             4    7     1       0.2596304731E-01       4    7    1         0.1364216703E+01      0.3211504073E+01
          0                 2           2             4    7     1      -0.2524142780E-02       4    7    1        -0.1363485866E+00      0.3210254429E+00
          0                 3           2             4    7     1       0.1717552666E-03       4    7    1         0.9537199075E-02      0.2245964025E-01
          0                 4           1             4    7     1      -0.6825739856E-05       4    7    1        -0.3895823038E-03      0.9178270370E-03

    ------------------------------------------------
       NWT REQUIRED            4 OUTER ITERATIONS 
       AND A TOTAL OF          7 INNER ITERATIONS.
    ------------------------------------------------

 NO OUTPUT CONTROL FOR STRESS PERIOD   25   TIME STEP    4
 
 SOLVING FOR HEAD 
                                                   Max.-Head-Change                         Max.-Flux-Residual
  Residual-Control   Outer-Iter.   Inner-Iter.     Column Row Layer    Maximum-Head-Change  Column Row Layer    Maximum-Flux-Residual          L2-NORM 
          0                 1           2             4    7     1       0.2567542788E-01       4    7    1         0.1348989225E+01      0.3182308572E+01
          0                 2           2             4    7     1      -0.2496179982E-02       4    7    1        -0.1348266354E+00      0.3181074428E+00
          0                 3           2             4    7     1       0.1698525328E-03       4    7    1         0.9430742393E-02      0.2225551074E-01
          0                 4           1             4    7     1      -0.6750122667E-05       4    7    1        -0.3852336324E-03      0.9094504044E-03

    ------------------------------------------------
       NWT REQUIRED            4 OUTER ITERATIONS 
       AND A TOTAL OF          7 INNER ITERATIONS.
    ------------------------------------------------

 NO OUTPUT CONTROL FOR STRESS PERIOD   25   TIME STEP    5
 
 SOLVING FOR HEAD 
                                                   Max.-Head-Change                         Max.-Flux-Residual
  Residual-Control   Outer-Iter.   Inner-Iter.     Column Row Layer    Maximum-Head-Change  Column Row Layer    Maximum-Flux-Residual          L2-NORM 
          0                 1           2             4    7     1       0.2539324793E-01       4    7    1         0.1334054590E+01      0.3153549389E+01
          0                 2           2             4    7     1      -0.2468746029E-02       4    7    1        -0.1333339540E+00      0.3152330717E+00
          0                 3           2             4    7     1       0.1679857851E-03       4    7    1         0.9326333098E-02      0.2205444377E-01
          0                 4           1             4    7     1      -0.6675935592E-05       4    7    1        -0.3809686141E-03      0.9012139965E-03

    ------------------------------------------------
       NWT REQUIRED            4 OUTER ITERATIONS 
       AND A TOTAL OF          7 INNER ITERATIONS.
    ------------------------------------------------

 NO OUTPUT CONTROL FOR STRESS PERIOD   25   TIME STEP    6
 
 SOLVING FOR HEAD 
                                                   Max.-Head-Change                         Max.-Flux-Residual
  Residual-Control   Outer-Iter.   Inner-Iter.     Column Row Layer    Maximum-Head-Change  Column Row Layer    Maximum-Flux-Residual          L2-NORM 
          0                 1           2             4    7     1       0.2511605245E-01       4    7    1         0.1319387344E+01      0.3125211294E+01
          0                 2           2             4    7     1      -0.2441796681E-02       4    7    1        -0.1318679978E+00      0.3124007557E+00
          0                 3           2             4    7     1       0.1661520121E-03       4    7    1         0.9223793157E-02      0.2185631908E-01
          0                 4           1             4    7     1      -0.6603059015E-05       4    7    1        -0.3767799512E-03      0.8931128484E-03

    ------------------------------------------------
       NWT REQUIRED            4 OUTER ITERATIONS 
       AND A TOTAL OF          7 INNER ITERATIONS.
    ------------------------------------------------

 NO OUTPUT CONTROL FOR STRESS PERIOD   25   TIME STEP    7
 
 SOLVING FOR HEAD 
                                                   Max.-Head-Change                         Max.-Flux-Residual
  Residual-Control   Outer-Iter.   Inner-Iter.     Column Row Layer    Maximum-Head-Change  Column Row Layer    Maximum-Flux-Residual          L2-NORM 
          0                 1           2             4    7     1       0.2484380381E-01       4    7    1         0.1304985852E+01      0.3097291373E+01
          0                 2           2             4    7     1      -0.2415328279E-02       4    7    1        -0.1304286038E+00      0.3096101929E+00
          0                 3           2             4    7     1       0.1643509656E-03       4    7    1         0.9123111196E-02      0.2166110019E-01
          0                 4           1             4    7     1      -0.6531483035E-05       4    7    1        -0.3726671871E-03      0.8851465037E-03

    ------------------------------------------------
       NWT REQUIRED            4 OUTER ITERATIONS 
       AND A TOTAL OF          7 INNER ITERATIONS.
    ------------------------------------------------

 NO OUTPUT CONTROL FOR STRESS PERIOD   25   TIME STEP    8
 
 SOLVING FOR HEAD 
                                                   Max.-Head-Change                         Max.-Flux-Residual
  Residual-Control   Outer-Iter.   Inner-Iter.     Column Row Layer    Maximum-Head-Change  Column Row Layer    Maximum-Flux-Residual          L2-NORM 
          0                 1           2             4    7     1       0.2457634115E-01       4    7    1         0.1290840845E+01      0.3069774242E+01
          0                 2           2             4    7     1      -0.2389325186E-02       4    7    1        -0.1290148453E+00      0.3068598999E+00
          0                 3           2             4    7     1       0.1625815817E-03       4    7    1         0.9024222410E-02      0.2146873943E-01
          0                 4           1             4    7     1      -0.6461165399E-05       4    7    1        -0.3686276693E-03      0.8772858838E-03

    ------------------------------------------------
       NWT REQUIRED            4 OUTER ITERATIONS 
       AND A TOTAL OF          7 INNER ITERATIONS.
    ------------------------------------------------

 NO OUTPUT CONTROL FOR STRESS PERIOD   25   TIME STEP    9
 
 SOLVING FOR HEAD 
                                                   Max.-Head-Change                         Max.-Flux-Residual
  Residual-Control   Outer-Iter.   Inner-Iter.     Column Row Layer    Maximum-Head-Change  Column Row Layer    Maximum-Flux-Residual          L2-NORM 
          0                 1           2             4    7     1       0.2431350430E-01       4    7    1         0.1276943983E+01      0.3042653650E+01
          0                 2           2             4    7     1      -0.2363771826E-02       4    7    1        -0.1276258887E+00      0.3041492040E+00
          0                 3           2             4    7     1       0.1608428002E-03       4    7    1         0.8927068455E-02      0.2127911097E-01
          0                 4           1             4    7     1      -0.6392064317E-05       4    7    1        -0.3646590360E-03      0.8695336578E-03

    ------------------------------------------------
       NWT REQUIRED            4 OUTER ITERATIONS 
       AND A TOTAL OF          7 INNER ITERATIONS.
    ------------------------------------------------

 NO OUTPUT CONTROL FOR STRESS PERIOD   25   TIME STEP   10
 
 SOLVING FOR HEAD 
                                                   Max.-Head-Change                         Max.-Flux-Residual
  Residual-Control   Outer-Iter.   Inner-Iter.     Column Row Layer    Maximum-Head-Change  Column Row Layer    Maximum-Flux-Residual          L2-NORM 
          0                 1           2             4    7     1       0.2405514659E-01       4    7    1         0.1263286959E+01      0.3015921122E+01
          0                 2           2             4    7     1      -0.2338653942E-02       4    7    1        -0.1262609038E+00      0.3014773223E+00
          0                 3           2             4    7     1       0.1591336506E-03       4    7    1         0.8831591259E-02      0.2109223446E-01
          0                 4           1             4    7     1      -0.6324140529E-05       4    7    1        -0.3607588912E-03      0.8618945756E-03

    ------------------------------------------------
       NWT REQUIRED            4 OUTER ITERATIONS 
       AND A TOTAL OF          7 INNER ITERATIONS.
    ------------------------------------------------

 NO OUTPUT CONTROL FOR STRESS PERIOD   25   TIME STEP   11
 
 SOLVING FOR HEAD 
                                                   Max.-Head-Change                         Max.-Flux-Residual
  Residual-Control   Outer-Iter.   Inner-Iter.     Column Row Layer    Maximum-Head-Change  Column Row Layer    Maximum-Flux-Residual          L2-NORM 
          0                 1           2             4    7     1       0.2380126318E-01       4    7    1         0.1249869492E+01      0.2989574127E+01
          0                 2           2             4    7     1      -0.2313971062E-02       4    7    1        -0.1249198625E+00      0.2988439086E+00
          0                 3           2             4    7     1       0.1574541008E-03       4    7    1         0.8737788877E-02      0.2090802711E-01
          0                 4           1             4    7     1      -0.6257392770E-05       4    7    1        -0.3569271464E-03      0.8544000152E-03

    ------------------------------------------------
       NWT REQUIRED            4 OUTER ITERATIONS 
       AND A TOTAL OF          7 INNER ITERATIONS.
    ------------------------------------------------

 NO OUTPUT CONTROL FOR STRESS PERIOD   25   TIME STEP   12
 
 SOLVING FOR HEAD 
                                                   Max.-Head-Change                         Max.-Flux-Residual
  Residual-Control   Outer-Iter.   Inner-Iter.     Column Row Layer    Maximum-Head-Change  Column Row Layer    Maximum-Flux-Residual          L2-NORM 
          0                 1           2             4    7     1       0.2355144336E-01       4    7    1         0.1236669366E+01      0.2963591270E+01
          0                 2           2             4    7     1      -0.2289683256E-02       4    7    1        -0.1236005442E+00      0.2962469182E+00
          0                 3           2             4    7     1       0.1558014345E-03       4    7    1         0.8645505983E-02      0.2072635735E-01
          0                 4           1             4    7     1      -0.6191713856E-05       4    7    1        -0.3531574762E-03      0.8469792904E-03

    ------------------------------------------------
       NWT REQUIRED            4 OUTER ITERATIONS 
       AND A TOTAL OF          7 INNER ITERATIONS.
    ------------------------------------------------

 NO OUTPUT CONTROL FOR STRESS PERIOD   25   TIME STEP   13
 
 SOLVING FOR HEAD 
                                                   Max.-Head-Change                         Max.-Flux-Residual
  Residual-Control   Outer-Iter.   Inner-Iter.     Column Row Layer    Maximum-Head-Change  Column Row Layer    Maximum-Flux-Residual          L2-NORM 
          0                 1           2             4    7     1       0.2330584189E-01       4    7    1         0.1223694574E+01      0.2937981509E+01
          0                 2           2             4    7     1      -0.2265805568E-02       4    7    1        -0.1223037478E+00      0.2936871695E+00
          0                 3           2             4    7     1       0.1541766745E-03       4    7    1         0.8554798437E-02      0.2054728789E-01
          0                 4           1             4    7     1      -0.6127143735E-05       4    7    1        -0.3494521588E-03      0.8396602722E-03

    ------------------------------------------------
       NWT REQUIRED            4 OUTER ITERATIONS 
       AND A TOTAL OF          7 INNER ITERATIONS.
    ------------------------------------------------

 NO OUTPUT CONTROL FOR STRESS PERIOD   25   TIME STEP   14
 
 SOLVING FOR HEAD 
                                                   Max.-Head-Change                         Max.-Flux-Residual
  Residual-Control   Outer-Iter.   Inner-Iter.     Column Row Layer    Maximum-Head-Change  Column Row Layer    Maximum-Flux-Residual          L2-NORM 
          0                 1           2             4    7     1       0.2306419538E-01       4    7    1         0.1210931172E+01      0.2912727973E+01
          0                 2           2             4    7     1      -0.2242312391E-02       4    7    1        -0.1210280797E+00      0.2911630388E+00
          0                 3           2             4    7     1       0.1525780792E-03       4    7    1         0.8465568778E-02      0.2037069833E-01
          0                 4           1             4    7     1      -0.6063613792E-05       4    7    1        -0.3458072263E-03      0.8324209282E-03

    ------------------------------------------------
       NWT REQUIRED            4 OUTER ITERATIONS 
       AND A TOTAL OF          7 INNER ITERATIONS.
    ------------------------------------------------

 NO OUTPUT CONTROL FOR STRESS PERIOD   25   TIME STEP   15
 
 SOLVING FOR HEAD 
                                                   Max.-Head-Change                         Max.-Flux-Residual
  Residual-Control   Outer-Iter.   Inner-Iter.     Column Row Layer    Maximum-Head-Change  Column Row Layer    Maximum-Flux-Residual          L2-NORM 
          0                 1           2             4    7     1       0.2282652418E-01       4    7    1         0.1198380151E+01      0.2887825115E+01
          0                 2           2             4    7     1      -0.2219205705E-02       4    7    1        -0.1197736388E+00      0.2886739679E+00
          0                 3           2             4    7     1       0.1510057830E-03       4    7    1         0.8377823938E-02      0.2019660178E-01
          0                 4           1             4    7     1      -0.6001128863E-05       4    7    1        -0.3422229443E-03      0.8253257475E-03

    ------------------------------------------------
       NWT REQUIRED            4 OUTER ITERATIONS 
       AND A TOTAL OF          7 INNER ITERATIONS.
    ------------------------------------------------

 NO OUTPUT CONTROL FOR STRESS PERIOD   25   TIME STEP   16
 
 SOLVING FOR HEAD 
                                                   Max.-Head-Change                         Max.-Flux-Residual
  Residual-Control   Outer-Iter.   Inner-Iter.     Column Row Layer    Maximum-Head-Change  Column Row Layer    Maximum-Flux-Residual          L2-NORM 
          0                 1           2             4    7     1       0.2259257989E-01       4    7    1         0.1186027919E+01      0.2863267842E+01
          0                 2           2             4    7     1      -0.2196461359E-02       4    7    1        -0.1185390667E+00      0.2862194446E+00
          0                 3           2             4    7     1       0.1494581416E-03       4    7    1         0.8291468832E-02      0.2002490831E-01
          0                 4           1             4    7     1      -0.5939623554E-05       4    7    1        -0.3386954193E-03      0.8183028416E-03

    ------------------------------------------------
       NWT REQUIRED            4 OUTER ITERATIONS 
       AND A TOTAL OF          7 INNER ITERATIONS.
    ------------------------------------------------

 NO OUTPUT CONTROL FOR STRESS PERIOD   25   TIME STEP   17
 
 SOLVING FOR HEAD 
                                                   Max.-Head-Change                         Max.-Flux-Residual
  Residual-Control   Outer-Iter.   Inner-Iter.     Column Row Layer    Maximum-Head-Change  Column Row Layer    Maximum-Flux-Residual          L2-NORM 
          0                 1           2             4    7     1       0.2236226056E-01       4    7    1         0.1173868921E+01      0.2839046207E+01
          0                 2           2             4    7     1      -0.2174069439E-02       4    7    1        -0.1173238080E+00      0.2837984510E+00
          0                 3           2             4    7     1       0.1479344820E-03       4    7    1         0.8206464699E-02      0.1985555496E-01
          0                 4           1             4    7     1      -0.5879071502E-05       4    7    1        -0.3352231017E-03      0.8113973099E-03

    ------------------------------------------------
       NWT REQUIRED            4 OUTER ITERATIONS 
       AND A TOTAL OF          7 INNER ITERATIONS.
    ------------------------------------------------

 NO OUTPUT CONTROL FOR STRESS PERIOD   25   TIME STEP   18
 
 SOLVING FOR HEAD 
                                                   Max.-Head-Change                         Max.-Flux-Residual
  Residual-Control   Outer-Iter.   Inner-Iter.     Column Row Layer    Maximum-Head-Change  Column Row Layer    Maximum-Flux-Residual          L2-NORM 
          0                 1           2             4    7     1       0.2213559933E-01       4    7    1         0.1161905193E+01      0.2815153637E+01
          0                 2           2             4    7     1      -0.2152033170E-02       4    7    1        -0.1161280665E+00      0.2814103013E+00
          0                 3           2             4    7     1       0.1464350224E-03       4    7    1         0.8122825729E-02      0.1968848415E-01
          0                 4           1             4    7     1      -0.5819481341E-05       4    7    1        -0.3318065362E-03      0.8045623731E-03

    ------------------------------------------------
       NWT REQUIRED            4 OUTER ITERATIONS 
       AND A TOTAL OF          7 INNER ITERATIONS.
    ------------------------------------------------

 NO OUTPUT CONTROL FOR STRESS PERIOD   25   TIME STEP   19
 
 SOLVING FOR HEAD 
                                                   Max.-Head-Change                         Max.-Flux-Residual
  Residual-Control   Outer-Iter.   Inner-Iter.     Column Row Layer    Maximum-Head-Change  Column Row Layer    Maximum-Flux-Residual          L2-NORM 
          0                 1           2             4    7     1       0.2191249890E-01       4    7    1         0.1150131132E+01      0.2791589677E+01
          0                 2           2             4    7     1      -0.2130343089E-02       4    7    1        -0.1149512818E+00      0.2790550444E+00
          0                 3           2             4    7     1       0.1449591192E-03       4    7    1         0.8040512753E-02      0.1952371532E-01
          0                 4           1             4    7     1      -0.5760827052E-05       4    7    1        -0.3284441268E-03      0.7978394706E-03

    ------------------------------------------------
       NWT REQUIRED            4 OUTER ITERATIONS 
       AND A TOTAL OF          7 INNER ITERATIONS.
    ------------------------------------------------

 NO OUTPUT CONTROL FOR STRESS PERIOD   25   TIME STEP   20
 
 SOLVING FOR HEAD 
                                                   Max.-Head-Change                         Max.-Flux-Residual
  Residual-Control   Outer-Iter.   Inner-Iter.     Column Row Layer    Maximum-Head-Change  Column Row Layer    Maximum-Flux-Residual          L2-NORM 
          0                 1           2             4    7     1       0.2169272898E-01       4    7    1         0.1138534366E+01      0.2768342351E+01
          0                 2           2             4    7     1      -0.2108976808E-02       4    7    1        -0.1137922176E+00      0.2767313948E+00
          0                 3           2             4    7     1       0.1435052489E-03       4    7    1         0.7959439277E-02      0.1936112048E-01
          0                 4           1             4    7     1      -0.5703048194E-05       4    7    1        -0.3251323503E-03      0.7911640065E-03

    ------------------------------------------------
       NWT REQUIRED            4 OUTER ITERATIONS 
       AND A TOTAL OF          7 INNER ITERATIONS.
    ------------------------------------------------

 NO OUTPUT CONTROL FOR STRESS PERIOD   25   TIME STEP   21
 
 SOLVING FOR HEAD 
                                                   Max.-Head-Change                         Max.-Flux-Residual
  Residual-Control   Outer-Iter.   Inner-Iter.     Column Row Layer    Maximum-Head-Change  Column Row Layer    Maximum-Flux-Residual          L2-NORM 
          0                 1           2             4    7     1       0.2147633827E-01       4    7    1         0.1127117606E+01      0.2745407664E+01
          0                 2           2             4    7     1      -0.2087939061E-02       4    7    1        -0.1126511448E+00      0.2744390284E+00
          0                 3           2             4    7     1       0.1420737344E-03       4    7    1         0.7879624261E-02      0.1920082852E-01
          0                 4           1             4    7     1      -0.5646158466E-05       4    7    1        -0.3218720060E-03      0.7846497941E-03

    ------------------------------------------------
       NWT REQUIRED            4 OUTER ITERATIONS 
       AND A TOTAL OF          7 INNER ITERATIONS.
    ------------------------------------------------

 NO OUTPUT CONTROL FOR STRESS PERIOD   25   TIME STEP   22
 
 SOLVING FOR HEAD 
                                                   Max.-Head-Change                         Max.-Flux-Residual
  Residual-Control   Outer-Iter.   Inner-Iter.     Column Row Layer    Maximum-Head-Change  Column Row Layer    Maximum-Flux-Residual          L2-NORM 
          0                 1           2             4    7     1       0.2126324101E-01       4    7    1         0.1115876052E+01      0.2722782084E+01
          0                 2           2             4    7     1      -0.2067221512E-02       4    7    1        -0.1115275835E+00      0.2721775353E+00
          0                 3           2             4    7     1       0.1406640075E-03       4    7    1         0.7801034128E-02      0.1904262123E-01
          0                 4           1             4    7     1      -0.5590134036E-05       4    7    1        -0.3186616921E-03      0.7781841019E-03

    ------------------------------------------------
       NWT REQUIRED            4 OUTER ITERATIONS 
       AND A TOTAL OF          7 INNER ITERATIONS.
    ------------------------------------------------

 NO OUTPUT CONTROL FOR STRESS PERIOD   25   TIME STEP   23
 
 SOLVING FOR HEAD 
                                                   Max.-Head-Change                         Max.-Flux-Residual
  Residual-Control   Outer-Iter.   Inner-Iter.     Column Row Layer    Maximum-Head-Change  Column Row Layer    Maximum-Flux-Residual          L2-NORM 
          0                 1           2             4    7     1       0.2105335441E-01       4    7    1         0.1104805258E+01      0.2700462607E+01
          0                 2           2             4    7     1      -0.2046816109E-02       4    7    1        -0.1104210895E+00      0.2699466313E+00
          0                 3           2             4    7     1       0.1392755211E-03       4    7    1         0.7723637844E-02      0.1888655663E-01
          0                 4           1             4    7     1      -0.5534954068E-05       4    7    1        -0.3155001332E-03      0.7718142319E-03

    ------------------------------------------------
       NWT REQUIRED            4 OUTER ITERATIONS 
       AND A TOTAL OF          7 INNER ITERATIONS.
    ------------------------------------------------

 NO OUTPUT CONTROL FOR STRESS PERIOD   25   TIME STEP   24
 
 SOLVING FOR HEAD 
                                                   Max.-Head-Change                         Max.-Flux-Residual
  Residual-Control   Outer-Iter.   Inner-Iter.     Column Row Layer    Maximum-Head-Change  Column Row Layer    Maximum-Flux-Residual          L2-NORM 
          0                 1           2             4    7     1       0.2084659513E-01       4    7    1         0.1093900930E+01      0.2678434810E+01
          0                 2           2             4    7     1      -0.2026715086E-02       4    7    1        -0.1093312335E+00      0.2677699819E+00
          0                 3           2             4    7     1       0.1379077456E-03       4    7    1         0.7647405308E-02      0.1873436889E-01
          0                 4           1             4    7     1      -0.5480596802E-05       4    7    1        -0.3123861170E-03      0.7657495199E-03

    ------------------------------------------------
       NWT REQUIRED            4 OUTER ITERATIONS 
       AND A TOTAL OF          7 INNER ITERATIONS.
    ------------------------------------------------

 NO OUTPUT CONTROL FOR STRESS PERIOD   25   TIME STEP   25
 
 SOLVING FOR HEAD 
                                                   Max.-Head-Change                         Max.-Flux-Residual
  Residual-Control   Outer-Iter.   Inner-Iter.     Column Row Layer    Maximum-Head-Change  Column Row Layer    Maximum-Flux-Residual          L2-NORM 
          0                 1           2             4    7     1       0.2064274953E-01       4    7    1         0.1083151405E+01      0.2656675285E+01
          0                 2           2             4    7     1      -0.2006896668E-02       4    7    1        -0.1082568497E+00      0.2655700705E+00
          0                 3           2             4    7     1       0.1365592006E-03       4    7    1         0.7572255030E-02      0.1858039066E-01
          0                 4           1             4    7     1      -0.5427004098E-05       4    7    1        -0.3093163155E-03      0.7593023265E-03

    ------------------------------------------------
       NWT REQUIRED            4 OUTER ITERATIONS 
       AND A TOTAL OF          7 INNER ITERATIONS.
    ------------------------------------------------

 NO OUTPUT CONTROL FOR STRESS PERIOD   25   TIME STEP   26
 
 SOLVING FOR HEAD 
                                                   Max.-Head-Change                         Max.-Flux-Residual
  Residual-Control   Outer-Iter.   Inner-Iter.     Column Row Layer    Maximum-Head-Change  Column Row Layer    Maximum-Flux-Residual          L2-NORM 
          0                 1           2             4    7     1       0.2044202390E-01       4    7    1         0.1072567636E+01      0.2635176217E+01
          0                 2           2             4    7     1      -0.1987381914E-02       4    7    1        -0.1071990331E+00      0.2634210531E+00
          0                 3           2             4    7     1       0.1352313183E-03       4    7    1         0.7498263602E-02      0.1843007956E-01
          0                 4           1             4    7     1      -0.5374232830E-05       4    7    1        -0.3062938461E-03      0.7531601379E-03

    ------------------------------------------------
       NWT REQUIRED            4 OUTER ITERATIONS 
       AND A TOTAL OF          7 INNER ITERATIONS.
    ------------------------------------------------

 NO OUTPUT CONTROL FOR STRESS PERIOD   25   TIME STEP   27
 
 SOLVING FOR HEAD 
                                                   Max.-Head-Change                         Max.-Flux-Residual
  Residual-Control   Outer-Iter.   Inner-Iter.     Column Row Layer    Maximum-Head-Change  Column Row Layer    Maximum-Flux-Residual          L2-NORM 
          0                 1           2             4    7     1       0.2024406851E-01       4    7    1         0.1062130961E+01      0.2613958288E+01
          0                 2           2             4    7     1      -0.1968136489E-02       4    7    1        -0.1061559182E+00      0.2613002422E+00
          0                 3           2             4    7     1       0.1339217630E-03       4    7    1         0.7425300531E-02      0.1828171401E-01
          0                 4           1             4    7     1      -0.5322189743E-05       4    7    1        -0.3033133949E-03      0.7470799391E-03

    ------------------------------------------------
       NWT REQUIRED            4 OUTER ITERATIONS 
       AND A TOTAL OF          7 INNER ITERATIONS.
    ------------------------------------------------

 NO OUTPUT CONTROL FOR STRESS PERIOD   25   TIME STEP   28
 
 SOLVING FOR HEAD 
                                                   Max.-Head-Change                         Max.-Flux-Residual
  Residual-Control   Outer-Iter.   Inner-Iter.     Column Row Layer    Maximum-Head-Change  Column Row Layer    Maximum-Flux-Residual          L2-NORM 
          0                 1           2             4    7     1       0.2004908683E-01       4    7    1         0.1051852572E+01      0.2593014171E+01
          0                 2           2             4    7     1      -0.1949180173E-02       4    7    1        -0.1051286238E+00      0.2592068036E+00
          0                 3           2             4    7     1       0.1326318797E-03       4    7    1         0.7353444044E-02      0.1813529542E-01
          0                 4           1             4    7     1      -0.5270928143E-05       4    7    1        -0.3003781310E-03      0.7411336189E-03

    ------------------------------------------------
       NWT REQUIRED            4 OUTER ITERATIONS 
       AND A TOTAL OF          7 INNER ITERATIONS.
    ------------------------------------------------

 NO OUTPUT CONTROL FOR STRESS PERIOD   25   TIME STEP   29
 
 SOLVING FOR HEAD 
                                                   Max.-Head-Change                         Max.-Flux-Residual
  Residual-Control   Outer-Iter.   Inner-Iter.     Column Row Layer    Maximum-Head-Change  Column Row Layer    Maximum-Flux-Residual          L2-NORM 
          0                 1           2             4    7     1       0.1985673007E-01       4    7    1         0.1041713710E+01      0.2576260683E+01
          0                 2           2             4    7     1      -0.1930479059E-02       4    7    1        -0.1041152749E+00      0.2575236664E+00
          0                 3           2             4    7     1       0.1313593618E-03       4    7    1         0.7282563013E-02      0.1801673730E-01
          0                 4           1             4    7     1      -0.5220356848E-05       4    7    1        -0.2974827273E-03      0.7361987480E-03

    ------------------------------------------------
       NWT REQUIRED            4 OUTER ITERATIONS 
       AND A TOTAL OF          7 INNER ITERATIONS.
    ------------------------------------------------

 NO OUTPUT CONTROL FOR STRESS PERIOD   25   TIME STEP   30



 STREAM LISTING     PERIOD     25   STEP       30

 LAYER ROW COL. STREAM  RCH.  FLOW INTO     FLOW TO   FLOW OUT OF   OVRLND.     DIRECT     STREAM       STREAM     STREAM     STREAM   STREAMBED  STREAMBED
                SEG.NO.  NO.  STRM. RCH.    AQUIFER    STRM. RCH.    RUNOFF     PRECIP       ET          HEAD       DEPTH      WIDTH   CONDCTNC.   GRADIENT

   1    1    1     1     1    1.8461E+01  2.1075E-01   1.8250E+01  0.000E+00  0.000E+00  0.000E+00  1.09412E+03  1.073E+00  1.150E+01  5.174E-02  1.358E+00
   1    2    2     1     2    1.8250E+01  3.2508E-01   1.7925E+01  0.000E+00  0.000E+00  0.000E+00  1.08913E+03  1.068E+00  1.141E+01  7.990E-02  1.356E+00
   1    3    3     1     3    1.7925E+01  2.7598E-01   1.7649E+01  0.000E+00  0.000E+00  0.000E+00  1.08348E+03  1.063E+00  1.132E+01  6.792E-02  1.354E+00
   1    3    4     1     4    1.7649E+01  2.5310E-01   1.7396E+01  0.000E+00  0.000E+00  0.000E+00  1.07847E+03  1.059E+00  1.124E+01  6.236E-02  1.353E+00
   1    4    5     2     1    1.5396E+01  3.0400E-01   1.5092E+01  0.000E+00  0.000E+00  0.000E+00  1.07283E+03  8.974E-01  1.200E+01  7.800E-02  1.299E+00
   1    5    6     2     2    1.5092E+01  2.3327E-01   1.4859E+01  0.000E+00  0.000E+00  0.000E+00  1.06740E+03  8.879E-01  1.200E+01  6.000E-02  1.296E+00
   1    6    6     2     3    1.4859E+01  2.3278E-01   1.4626E+01  0.000E+00  0.000E+00  0.000E+00  1.06267E+03  8.796E-01  1.200E+01  6.000E-02  1.293E+00
   1    7    6     2     4    1.4626E+01  2.3227E-01   1.4394E+01  0.000E+00  0.000E+00  0.000E+00  1.05795E+03  8.712E-01  1.200E+01  6.000E-02  1.290E+00
   1    8    6     2     5    1.4394E+01  2.3177E-01   1.4162E+01  0.000E+00  0.000E+00  0.000E+00  1.05322E+03  8.629E-01  1.200E+01  6.000E-02  1.288E+00
   1    3    5     3     1    2.0000E+00  2.8252E-01   1.7175E+00  0.000E+00  0.000E+00  0.000E+00  1.07555E+03  1.909E+00  9.636E+00  7.227E-02  1.955E+00
   1    3    6     3     2    1.7175E+00  2.4905E-01   1.4684E+00  0.000E+00  0.000E+00  0.000E+00  1.07264E+03  1.727E+00  8.909E+00  6.682E-02  1.864E+00
   1    3    7     3     3    1.4684E+00  1.9718E-01   1.2712E+00  0.000E+00  0.000E+00  0.000E+00  1.06987E+03  1.555E+00  8.218E+00  5.547E-02  1.777E+00
   1    4    8     3     4    1.2712E+00  2.2567E-01   1.0456E+00  0.000E+00  0.000E+00  0.000E+00  1.06682E+03  1.364E+00  7.455E+00  6.709E-02  1.682E+00
   1    5    8     3     5    1.0456E+00  1.5790E-01   8.8768E-01  0.000E+00  0.000E+00  0.000E+00  1.06362E+03  1.164E+00  6.655E+00  4.991E-02  1.582E+00
   1    6    8     3     6    8.8768E-01  5.5980E-02   8.3170E-01  0.000E+00  0.000E+00  0.000E+00  1.06158E+03  1.036E+00  6.145E+00  1.844E-02  1.518E+00
   1    5   10     4     1    1.0000E+01  9.0919E-02   9.9091E+00  0.000E+00  0.000E+00  0.000E+00  1.07836E+03  6.368E-01  1.000E+01  2.500E-02  1.212E+00
   1    5    9     4     2    9.9091E+00  1.8158E-01   9.7275E+00  0.000E+00  0.000E+00  0.000E+00  1.07154E+03  6.315E-01  1.000E+01  5.000E-02  1.211E+00
   1    6    8     4     3    9.7275E+00  1.2689E-01   9.6006E+00  0.000E+00  0.000E+00  0.000E+00  1.06381E+03  6.256E-01  1.000E+01  3.500E-02  1.209E+00
   1    6    8     5     1    1.0432E+01  2.2686E-01   1.0205E+01  0.000E+00  0.000E+00  0.000E+00  1.05868E+03  6.790E-01  1.542E+01  6.166E-02  1.226E+00
   1    7    7     5     2    1.0205E+01  2.7894E-01   9.9265E+00  0.000E+00  0.000E+00  0.000E+00  1.05417E+03  6.732E-01  1.519E+01  7.594E-02  1.224E+00
   1    8    7     5     3    9.9265E+00  1.9221E-01   9.7343E+00  0.000E+00  0.000E+00  0.000E+00  1.04992E+03  6.676E-01  1.497E+01  5.241E-02  1.223E+00
   1    8    6     5     4    9.7343E+00  1.3577E-01   9.5985E+00  0.000E+00  0.000E+00  0.000E+00  1.04691E+03  6.637E-01  1.482E+01  3.706E-02  1.221E+00
   1    9    6     6     1    2.3760E+01  2.5084E-01   2.3510E+01  0.000E+00  0.000E+00  0.000E+00  1.04391E+03  1.181E+00  1.200E+01  6.000E-02  1.394E+00
   1   10    7     6     2    2.3510E+01  2.5038E-01   2.3259E+01  0.000E+00  0.000E+00  0.000E+00  1.03935E+03  1.173E+00  1.200E+01  6.000E-02  1.391E+00
   1   11    7     6     3    2.3259E+01  2.4993E-01   2.3009E+01  0.000E+00  0.000E+00  0.000E+00  1.03480E+03  1.166E+00  1.200E+01  6.000E-02  1.389E+00
   1   12    7     6     4    2.3009E+01  2.4948E-01   2.2760E+01  0.000E+00  0.000E+00  0.000E+00  1.03025E+03  1.158E+00  1.200E+01  6.000E-02  1.386E+00
   1   13    7     6     5    2.2760E+01  2.4444E-03   2.2757E+01  0.000E+00  0.000E+00  0.000E+00  1.02706E+03  1.154E+00  1.200E+01  2.400E-02  3.395E-02
   1   14    9     7     1    1.5000E+02  1.3376E+00   1.4866E+02  0.000E+00  0.000E+00  0.000E+00  1.03987E+03  2.288E+00  5.529E+01  5.593E-01  7.972E-01
   1   13    8     7     2    1.4866E+02  1.8573E+00   1.4681E+02  0.000E+00  0.000E+00  0.000E+00  1.03478E+03  2.279E+00  5.526E+01  6.148E-01  1.007E+00
   1   13    7     7     3    1.4681E+02  1.5235E+00   1.4528E+02  0.000E+00  0.000E+00  0.000E+00  1.02969E+03  2.270E+00  5.522E+01  5.584E-01  9.094E-01
   1   13    6     8     1    1.6804E+02  9.7166E-01   1.6707E+02  0.000E+00  0.000E+00  0.000E+00  1.02481E+03  2.936E+00  4.257E+01  4.339E-01  7.465E-01
   1   13    5     8     2    1.6707E+02  2.3315E-01   1.6683E+02  0.000E+00  0.000E+00  0.000E+00  1.01856E+03  2.932E+00  4.252E+01  4.333E-01  1.794E-01
   1   13    4     8     3    1.6683E+02 -2.2385E+00   1.6907E+02  0.000E+00  0.000E+00  0.000E+00  1.01231E+03  2.939E+00  4.261E+01  4.342E+00 -1.718E-01
   1   13    3     8     4    1.6907E+02 -3.5812E+00   1.7265E+02  0.000E+00  0.000E+00  0.000E+00  1.00608E+03  2.958E+00  4.289E+01  4.370E+00 -2.731E-01
   1   13    2     8     5    1.7265E+02 -2.5921E+00   1.7525E+02  0.000E+00  0.000E+00  0.000E+00  9.99853E+02  2.978E+00  4.318E+01  4.400E+00 -1.964E-01
   1   13    1     8     6    1.7525E+02 -2.0007E+00   1.7725E+02  0.000E+00  0.000E+00  0.000E+00  9.94867E+02  2.992E+00  4.339E+01  2.653E+00 -2.514E-01





UNSATURATED ZONE PACKAGE VOLUMETRIC BUDGET FOR  TIME STEP    30 STRESS PERIOD   25
  ------------------------------------------------------------------------------



     CUMULATIVE VOLUMES      L**3       RATES FOR THIS TIME STEP      L**3/T
     ------------------                 ------------------------

           IN:                                      IN:
           ---                                      ---
        INFILTRATION =   923652032.3101          INFILTRATION =           0.8475

          OUT:                                     OUT:
          ----                                     ----
              UZF ET =   847211598.0436                UZF ET =           0.7500
        UZF RECHARGE =    75853888.7162          UZF RECHARGE =           0.0003

            IN - OUT =      586545.5503              IN - OUT =       9.7250E-02

          STORAGE:                                 STORAGE:
          --------                                 --------
      STORAGE CHANGE =      586549.5059        STORAGE CHANGE =       9.7250E-02

 PERCENT DISCREPANCY IS DIFFERENCE BETWEEN IN-OUT MINUS CHANGE IN STORAGE
 DIVIDED BY THE AVERAGE OF IN AND OUT TIMES 100

 PERCENT DISCREPANCY =           0.00     PERCENT DISCREPANCY =           0.00






1
  VOLUMETRIC BUDGET FOR AGRICULTURAL FIELDS AT  END OF TIME STEP   30, STRESS PERIOD  25
  ------------------------------------------------------------------------------

     CUMULATIVE VOLUMES      L**3       RATES FOR THIS TIME STEP      L**3/T
     ------------------                 ------------------------

           IN:                                      IN:
           ---                                      ---
               AG WELLS  =   870083328.0000                 AG WELLS  =           0.0000
      DIVERSION SEGMENTS =           0.0000        DIVERSION SEGMENTS =           0.0000
           GW IRRIGATION =           0.0000             GW IRRIGATION =           0.0000
           SW IRRIGATION =           0.0000             SW IRRIGATION =           0.0000
        SYSTEM LOSSES GW =           0.0000          SYSTEM LOSSES GW =           0.0000
        SYSTEM LOSSES SW =           0.0000          SYSTEM LOSSES SW =           0.0000

                TOTAL IN =   870083328.0000                  TOTAL IN =           0.0000

          OUT:                                     OUT:
          ----                                     ----
               AG WELLS  =           0.0000                 AG WELLS  =           0.0000
      DIVERSION SEGMENTS =           0.0000        DIVERSION SEGMENTS =           0.0000
           GW IRRIGATION =   870083328.0000             GW IRRIGATION =           0.0000
           SW IRRIGATION =           0.0000             SW IRRIGATION =           0.0000
        SYSTEM LOSSES GW =           0.0000          SYSTEM LOSSES GW =           0.0000
        SYSTEM LOSSES SW =           0.0000          SYSTEM LOSSES SW =           0.0000

               TOTAL OUT =   870083328.0000                 TOTAL OUT =           0.0000

                IN - OUT =           0.0000                  IN - OUT =           0.0000

     PERCENT DISCREPANCY =           0.00         PERCENT DISCREPANCY =           0.00



1
  VOLUMETRIC BUDGET FOR ENTIRE MODEL AT END OF TIME STEP   30, STRESS PERIOD  25
  ------------------------------------------------------------------------------

     CUMULATIVE VOLUMES      L**3       RATES FOR THIS TIME STEP      L**3/T
     ------------------                 ------------------------

           IN:                                      IN:
           ---                                      ---
             STORAGE     =  1144081792.0000               STORAGE     =           7.5913
       CONSTANT HEAD     =           0.0000         CONSTANT HEAD     =           0.0000
     HEAD DEP BOUNDS     =    18044062.0000       HEAD DEP BOUNDS     =           0.2859
      STREAM LEAKAGE     =   784920704.0000        STREAM LEAKAGE     =          11.6268
        UZF RECHARGE     =    75853920.0000          UZF RECHARGE     =       2.5004E-04
               GW ET     =           0.0000                 GW ET     =           0.0000
     SURFACE LEAKAGE     =           0.0000       SURFACE LEAKAGE     =           0.0000
           AG WELLS      =           0.0000             AG WELLS      =           0.0000

                TOTAL IN =  2022900480.0000                  TOTAL IN =          19.5042

          OUT:                                     OUT:
          ----                                     ----
             STORAGE     =   461292352.0000               STORAGE     =           8.8021
       CONSTANT HEAD     =           0.0000         CONSTANT HEAD     =           0.0000
     HEAD DEP BOUNDS     =    18585862.0000       HEAD DEP BOUNDS     =           0.2896
      STREAM LEAKAGE     =   655326528.0000        STREAM LEAKAGE     =          10.4125
        UZF RECHARGE     =           0.0000          UZF RECHARGE     =           0.0000
               GW ET     =    17607600.0000                 GW ET     =           0.0000
     SURFACE LEAKAGE     =           0.0000       SURFACE LEAKAGE     =           0.0000
           AG WELLS      =   870083328.0000             AG WELLS      =           0.0000

               TOTAL OUT =  2022895616.0000                 TOTAL OUT =          19.5042

                IN - OUT =        4864.0000                  IN - OUT =       7.6294E-06

     PERCENT DISCREPANCY =           0.00         PERCENT DISCREPANCY =           0.00






         TIME SUMMARY AT END OF TIME STEP   30 IN STRESS PERIOD   25
                    SECONDS     MINUTES      HOURS       DAYS        YEARS
                    -----------------------------------------------------------
   TIME STEP LENGTH  87667.      1461.1      24.352      1.0147     2.77799E-03
 STRESS PERIOD TIME 2.63000E+06  43833.      730.56      30.440     8.33397E-02
         TOTAL TIME 6.32067E+07 1.05345E+06  17557.      731.56      2.0029    
1
1
                            STRESS PERIOD NO.   26, LENGTH =   2630000.    
                            -----------------------------------------------

                              NUMBER OF TIME STEPS =    30

                               MULTIPLIER FOR DELT =     1.000

                            INITIAL TIME STEP SIZE =   87666.66    

 REUSING NON-PARAMETER GHB CELLS FROM LAST STRESS PERIOD

      2 GHB CELLS

 REUSING STREAM SEGMENT DATA FROM LAST STRESS PERIOD



            AREAL INFILTRATION RATE
 READING ON UNIT   19 WITH FORMAT: (FREE)              

            1           2           3           4           5           6           7           8           9          10
 ........................................................................................................................
   1   1.0000E-10  2.0000E-10   0.000       0.000       0.000       0.000       0.000       0.000       0.000       0.000    
   2   2.0000E-10  1.0000E-10  2.0000E-10   0.000       0.000      8.0000E-10  8.0000E-10  5.0000E-10   0.000       0.000    
   3    0.000      5.0000E-10  1.0000E-10  1.0000E-10  8.0000E-10  8.0000E-10  5.0000E-10  5.0000E-10   0.000       0.000    
   4   8.0000E-10  5.0000E-10  1.0000E-10  1.0000E-10  1.0000E-10  1.0000E-10  1.0000E-10  1.0000E-10  2.0000E-10   0.000    
   5   8.0000E-10  5.0000E-10  1.0000E-10  1.0000E-10  1.0000E-10  1.0000E-10  1.0000E-10  1.0000E-10  1.0000E-10  1.0000E-10
   6   8.0000E-10  5.0000E-10  5.0000E-10  2.0000E-10  2.0000E-10  1.0000E-10  1.0000E-10  1.0000E-10  1.0000E-10  5.0000E-10
   7   8.0000E-10  5.0000E-10  5.0000E-10  2.0000E-10  2.0000E-10  1.0000E-10  1.0000E-10  2.0000E-10  2.0000E-10   0.000    
   8    0.000      5.0000E-10  5.0000E-10  2.0000E-10  2.0000E-10  1.0000E-10  1.0000E-10  2.0000E-10  5.0000E-10   0.000    
   9    0.000      5.0000E-10  5.0000E-10  2.0000E-10  2.0000E-10  1.0000E-10  1.0000E-10  2.0000E-10  5.0000E-10   0.000    
  10    0.000      5.0000E-10  5.0000E-10  2.0000E-10  2.0000E-10  1.0000E-10  1.0000E-10  2.0000E-10  5.0000E-10  8.0000E-10
  11    0.000      1.0000E-10  1.0000E-10  1.0000E-10  1.0000E-10  1.0000E-10  1.0000E-10  2.0000E-10  5.0000E-10   0.000    
  12   1.0000E-10  1.0000E-10  1.0000E-10  1.0000E-10  1.0000E-10  1.0000E-10  1.0000E-10  1.0000E-10  2.0000E-10   0.000    
  13   1.0000E-10  1.0000E-10  2.0000E-10  2.0000E-10  2.0000E-10  2.0000E-10  2.0000E-10  1.0000E-10  1.0000E-10   0.000    
  14    0.000      2.0000E-10  5.0000E-10  5.0000E-10  5.0000E-10  5.0000E-10  5.0000E-10  2.0000E-10  1.0000E-10   0.000    
  15    0.000       0.000      8.0000E-10  8.0000E-10  8.0000E-10  8.0000E-10   0.000       0.000       0.000       0.000    

                  ET RATE =  5.000000E-10

 USING ET EXTINCTION DEPTH FROM PREVIOUS STRESS PERIOD. CURRENT PERIOD IS:      26

 USING EXTINCTION WATER CONTENT FROM PREVIOUS STRESS PERIOD. CURRENT PERIOD IS:      26

 USING AIR ENTRY PRESSURE FROM PREVIOUS STRESS PERIOD. CURRENT PERIOD IS:      26

 USING ROOT PRESSURE HEAD FROM PREVIOUS STRESS PERIOD. CURRENT PERIOD IS:      26

 USING ROOT ACTIVITY FROM PREVIOUS STRESS PERIOD. CURRENT PERIOD IS:      26

 PROCESSING AG STRESS PERIOD DATA

 READING AG STRESS PERIOD DATA

 READING IRRIGATION WELL

 END PROCESSING AG STRESS PERIOD DATA OPTIONS
 
 SOLVING FOR HEAD 
                                                   Max.-Head-Change                         Max.-Flux-Residual
  Residual-Control   Outer-Iter.   Inner-Iter.     Column Row Layer    Maximum-Head-Change  Column Row Layer    Maximum-Flux-Residual          L2-NORM 
          0                 1           2             4    7     1       0.1966721305E-01       4    7    1         0.1031725601E+01      0.2554193383E+01
          0                 2           2             4    7     1      -0.1912054029E-02       4    7    1        -0.1031169934E+00      0.2553220602E+00
          0                 3           2             4    7     1       0.1301056298E-03       4    7    1         0.7212735916E-02      0.1786313196E-01
          0                 4           1             4    7     1      -0.5170531695E-05       4    7    1        -0.2946303512E-03      0.7299641842E-03

    ------------------------------------------------
       NWT REQUIRED            4 OUTER ITERATIONS 
       AND A TOTAL OF          7 INNER ITERATIONS.
    ------------------------------------------------

 NO OUTPUT CONTROL FOR STRESS PERIOD   26   TIME STEP    1
 
 SOLVING FOR HEAD 
                                                   Max.-Head-Change                         Max.-Flux-Residual
  Residual-Control   Outer-Iter.   Inner-Iter.     Column Row Layer    Maximum-Head-Change  Column Row Layer    Maximum-Flux-Residual          L2-NORM 
          0                 1           2             4    7     1       0.1948033132E-01       4    7    1         0.1021877399E+01      0.2533990505E+01
          0                 2           2             4    7     1      -0.1893885207E-02       4    7    1        -0.1021326955E+00      0.2533034388E+00
          0                 3           2             4    7     1       0.1288693318E-03       4    7    1         0.7143886937E-02      0.1772193075E-01
          0                 4           1             4    7     1      -0.5121399725E-05       4    7    1        -0.2918179514E-03      0.7241834031E-03

    ------------------------------------------------
       NWT REQUIRED            4 OUTER ITERATIONS 
       AND A TOTAL OF          7 INNER ITERATIONS.
    ------------------------------------------------

 NO OUTPUT CONTROL FOR STRESS PERIOD   26   TIME STEP    2
 
 SOLVING FOR HEAD 
                                                   Max.-Head-Change                         Max.-Flux-Residual
  Residual-Control   Outer-Iter.   Inner-Iter.     Column Row Layer    Maximum-Head-Change  Column Row Layer    Maximum-Flux-Residual          L2-NORM 
          0                 1           2             4    7     1       0.1929603027E-01       4    7    1         0.1012165832E+01      0.2514053680E+01
          0                 2           2             4    7     1      -0.1875967283E-02       4    7    1        -0.1011620539E+00      0.2513110525E+00
          0                 3           2             4    7     1       0.1276501061E-03       4    7    1         0.7075993194E-02      0.1758260441E-01
          0                 4           1             4    7     1      -0.5072946432E-05       4    7    1        -0.2890445610E-03      0.7184945064E-03

    ------------------------------------------------
       NWT REQUIRED            4 OUTER ITERATIONS 
       AND A TOTAL OF          7 INNER ITERATIONS.
    ------------------------------------------------

 NO OUTPUT CONTROL FOR STRESS PERIOD   26   TIME STEP    3
 
 SOLVING FOR HEAD 
                                                   Max.-Head-Change                         Max.-Flux-Residual
  Residual-Control   Outer-Iter.   Inner-Iter.     Column Row Layer    Maximum-Head-Change  Column Row Layer    Maximum-Flux-Residual          L2-NORM 
          0                 1           2             4    7     1       0.1911439137E-01       4    7    1         0.1002595397E+01      0.2494387470E+01
          0                 2           2             4    7     1      -0.1858308178E-02       4    7    1        -0.1002055182E+00      0.2493456314E+00
          0                 3           2             4    7     1       0.1264484919E-03       4    7    1         0.7009086097E-02      0.1744513442E-01
          0                 4           1             4    7     1      -0.5025192885E-05       4    7    1        -0.2863114930E-03      0.7128884934E-03

    ------------------------------------------------
       NWT REQUIRED            4 OUTER ITERATIONS 
       AND A TOTAL OF          7 INNER ITERATIONS.
    ------------------------------------------------

 NO OUTPUT CONTROL FOR STRESS PERIOD   26   TIME STEP    4
 
 SOLVING FOR HEAD 
                                                   Max.-Head-Change                         Max.-Flux-Residual
  Residual-Control   Outer-Iter.   Inner-Iter.     Column Row Layer    Maximum-Head-Change  Column Row Layer    Maximum-Flux-Residual          L2-NORM 
          0                 1           2             4    7     1       0.1893508140E-01       4    7    1         0.9931483316E+00      0.2474959202E+01
          0                 2           2             4    7     1      -0.1840928663E-02       4    7    1        -0.9926131312E-01      0.2474696382E+00
          0                 3           2             4    7     1       0.1252659007E-03       4    7    1         0.6943041391E-02      0.1731390958E-01
          0                 4           1             4    7     1      -0.4978195496E-05       4    7    1        -0.2836136266E-03      0.7075102440E-03

    ------------------------------------------------
       NWT REQUIRED            4 OUTER ITERATIONS 
       AND A TOTAL OF          7 INNER ITERATIONS.
    ------------------------------------------------

 NO OUTPUT CONTROL FOR STRESS PERIOD   26   TIME STEP    5
 
 SOLVING FOR HEAD 
                                                   Max.-Head-Change                         Max.-Flux-Residual
  Residual-Control   Outer-Iter.   Inner-Iter.     Column Row Layer    Maximum-Head-Change  Column Row Layer    Maximum-Flux-Residual          L2-NORM 
          0                 1           2             4    7     1       0.1875815258E-01       4    7    1         0.9838338415E+00      0.2455726396E+01
          0                 2           2             4    7     1      -0.1823674341E-02       4    7    1        -0.9833035927E-01      0.2454818805E+00
          0                 3           2             4    7     1       0.1240918328E-03       4    7    1         0.6877923853E-02      0.1717492287E-01
          0                 4           1             4    7     1      -0.4931536582E-05       4    7    1        -0.2809536716E-03      0.7018461005E-03

    ------------------------------------------------
       NWT REQUIRED            4 OUTER ITERATIONS 
       AND A TOTAL OF          7 INNER ITERATIONS.
    ------------------------------------------------

 NO OUTPUT CONTROL FOR STRESS PERIOD   26   TIME STEP    6
 
 SOLVING FOR HEAD 
                                                   Max.-Head-Change                         Max.-Flux-Residual
  Residual-Control   Outer-Iter.   Inner-Iter.     Column Row Layer    Maximum-Head-Change  Column Row Layer    Maximum-Flux-Residual          L2-NORM 
          0                 1           2             4    7     1       0.1858372069E-01       4    7    1         0.9746484772E+00      0.2436729971E+01
          0                 2           2             4    7     1      -0.1806715919E-02       4    7    1        -0.9741231097E-01      0.2435833281E+00
          0                 3           2             4    7     1       0.1229378973E-03       4    7    1         0.6813708906E-02      0.1704214282E-01
          0                 4           1             4    7     1      -0.4885678036E-05       4    7    1        -0.2783305604E-03      0.6964382785E-03

    ------------------------------------------------
       NWT REQUIRED            4 OUTER ITERATIONS 
       AND A TOTAL OF          7 INNER ITERATIONS.
    ------------------------------------------------

 NO OUTPUT CONTROL FOR STRESS PERIOD   26   TIME STEP    7
 
 SOLVING FOR HEAD 
                                                   Max.-Head-Change                         Max.-Flux-Residual
  Residual-Control   Outer-Iter.   Inner-Iter.     Column Row Layer    Maximum-Head-Change  Column Row Layer    Maximum-Flux-Residual          L2-NORM 
          0                 1           2             4    7     1       0.1841154803E-01       4    7    1         0.9655824112E+00      0.2417975596E+01
          0                 2           2             4    7     1      -0.1789977143E-02       4    7    1        -0.9650618626E-01      0.2417089529E+00
          0                 3           2             4    7     1       0.1217989068E-03       4    7    1         0.6750327945E-02      0.1691101051E-01
          0                 4           1             4    7     1      -0.4840413202E-05       4    7    1        -0.2757415180E-03      0.6910666819E-03

    ------------------------------------------------
       NWT REQUIRED            4 OUTER ITERATIONS 
       AND A TOTAL OF          7 INNER ITERATIONS.
    ------------------------------------------------

 NO OUTPUT CONTROL FOR STRESS PERIOD   26   TIME STEP    8
 
 SOLVING FOR HEAD 
                                                   Max.-Head-Change                         Max.-Flux-Residual
  Residual-Control   Outer-Iter.   Inner-Iter.     Column Row Layer    Maximum-Head-Change  Column Row Layer    Maximum-Flux-Residual          L2-NORM 
          0                 1           2             4    7     1       0.1824159628E-01       4    7    1         0.9566334818E+00      0.2399459498E+01
          0                 2           2             4    7     1      -0.1773454287E-02       4    7    1        -0.9561176905E-01      0.2398583418E+00
          0                 3           2             4    7     1       0.1206746092E-03       4    7    1         0.6687765909E-02      0.1678154949E-01
          0                 4           1             4    7     1      -0.4795732526E-05       4    7    1        -0.2731859458E-03      0.6857697547E-03

    ------------------------------------------------
       NWT REQUIRED            4 OUTER ITERATIONS 
       AND A TOTAL OF          7 INNER ITERATIONS.
    ------------------------------------------------

 NO OUTPUT CONTROL FOR STRESS PERIOD   26   TIME STEP    9
 
 SOLVING FOR HEAD 
                                                   Max.-Head-Change                         Max.-Flux-Residual
  Residual-Control   Outer-Iter.   Inner-Iter.     Column Row Layer    Maximum-Head-Change  Column Row Layer    Maximum-Flux-Residual          L2-NORM 
          0                 1           2             4    7     1       0.1807396122E-01       4    7    1         0.9478070337E+00      0.2381184310E+01
          0                 2           2             4    7     1      -0.1757156662E-02       4    7    1        -0.9472959357E-01      0.2380318629E+00
          0                 3           2             4    7     1       0.1195656369E-03       4    7    1         0.6626060133E-02      0.1665382867E-01
          0                 4           1             4    7     1      -0.4751660529E-05       4    7    1        -0.2706653315E-03      0.6805693843E-03

    ------------------------------------------------
       NWT REQUIRED            4 OUTER ITERATIONS 
       AND A TOTAL OF          7 INNER ITERATIONS.
    ------------------------------------------------

 NO OUTPUT CONTROL FOR STRESS PERIOD   26   TIME STEP   10
 
 SOLVING FOR HEAD 
                                                   Max.-Head-Change                         Max.-Flux-Residual
  Residual-Control   Outer-Iter.   Inner-Iter.     Column Row Layer    Maximum-Head-Change  Column Row Layer    Maximum-Flux-Residual          L2-NORM 
          0                 1           2             4    7     1       0.1790846383E-01       4    7    1         0.9390933706E+00      0.2363133285E+01
          0                 2           2             4    7     1      -0.1741066865E-02       4    7    1        -0.9385869071E-01      0.2362277184E+00
          0                 3           1             4    7     1       0.1184708101E-03       4    7    1         0.6565142873E-02      0.1652765100E-01
          0                 4           1             4    7     1      -0.4708154269E-05       4    7    1        -0.2681769392E-03      0.6754393117E-03

    ------------------------------------------------
       NWT REQUIRED            4 OUTER ITERATIONS 
       AND A TOTAL OF          6 INNER ITERATIONS.
    ------------------------------------------------

 NO OUTPUT CONTROL FOR STRESS PERIOD   26   TIME STEP   11
 
 SOLVING FOR HEAD 
                                                   Max.-Head-Change                         Max.-Flux-Residual
  Residual-Control   Outer-Iter.   Inner-Iter.     Column Row Layer    Maximum-Head-Change  Column Row Layer    Maximum-Flux-Residual          L2-NORM 
          0                 1           2             4    7     1       0.1774519662E-01       4    7    1         0.9304978732E+00      0.2345308499E+01
          0                 2           2             4    7     1      -0.1725193890E-02       4    7    1        -0.9299959824E-01      0.2344461853E+00
          0                 3           1             4    7     1       0.1173907336E-03       4    7    1         0.6505051723E-02      0.1640299020E-01
          0                 4           1             4    7     1      -0.4665230785E-05       4    7    1        -0.2657222863E-03      0.6703229650E-03

    ------------------------------------------------
       NWT REQUIRED            4 OUTER ITERATIONS 
       AND A TOTAL OF          6 INNER ITERATIONS.
    ------------------------------------------------

 NO OUTPUT CONTROL FOR STRESS PERIOD   26   TIME STEP   12
 
 SOLVING FOR HEAD 
                                                   Max.-Head-Change                         Max.-Flux-Residual
  Residual-Control   Outer-Iter.   Inner-Iter.     Column Row Layer    Maximum-Head-Change  Column Row Layer    Maximum-Flux-Residual          L2-NORM 
          0                 1           2             4    7     1       0.1758398876E-01       4    7    1         0.9220106752E+00      0.2327709398E+01
          0                 2           2             4    7     1      -0.1709521127E-02       4    7    1        -0.9215132999E-01      0.2326871893E+00
          0                 3           1             4    7     1       0.1163242804E-03       4    7    1         0.6445717699E-02      0.1627997699E-01
          0                 4           1             4    7     1      -0.4622848517E-05       4    7    1        -0.2632985475E-03      0.6652999064E-03

    ------------------------------------------------
       NWT REQUIRED            4 OUTER ITERATIONS 
       AND A TOTAL OF          6 INNER ITERATIONS.
    ------------------------------------------------

 NO OUTPUT CONTROL FOR STRESS PERIOD   26   TIME STEP   13
 
 SOLVING FOR HEAD 
                                                   Max.-Head-Change                         Max.-Flux-Residual
  Residual-Control   Outer-Iter.   Inner-Iter.     Column Row Layer    Maximum-Head-Change  Column Row Layer    Maximum-Flux-Residual          L2-NORM 
          0                 1           2             4    7     1       0.1742493753E-01       4    7    1         0.9136375822E+00      0.2310325093E+01
          0                 2           2             4    7     1      -0.1694058035E-02       4    7    1        -0.9131446630E-01      0.2309496829E+00
          0                 3           1             4    7     1       0.1152720940E-03       4    7    1         0.6387181362E-02      0.1615844390E-01
          0                 4           1             4    7     1      -0.4581033712E-05       4    7    1        -0.2609074149E-03      0.6603409259E-03

    ------------------------------------------------
       NWT REQUIRED            4 OUTER ITERATIONS 
       AND A TOTAL OF          6 INNER ITERATIONS.
    ------------------------------------------------

 NO OUTPUT CONTROL FOR STRESS PERIOD   26   TIME STEP   14
 
 SOLVING FOR HEAD 
                                                   Max.-Head-Change                         Max.-Flux-Residual
  Residual-Control   Outer-Iter.   Inner-Iter.     Column Row Layer    Maximum-Head-Change  Column Row Layer    Maximum-Flux-Residual          L2-NORM 
          0                 1           2             4    7     1       0.1726786984E-01       4    7    1         0.9053689750E+00      0.2293159194E+01
          0                 2           2             4    7     1      -0.1678787786E-02       4    7    1        -0.9048804570E-01      0.2292339612E+00
          0                 3           1             4    7     1       0.1142330300E-03       4    7    1         0.6329375509E-02      0.1603839853E-01
          0                 4           1             4    7     1      -0.4539740204E-05       4    7    1        -0.2585461223E-03      0.6554278708E-03

    ------------------------------------------------
       NWT REQUIRED            4 OUTER ITERATIONS 
       AND A TOTAL OF          6 INNER ITERATIONS.
    ------------------------------------------------

 NO OUTPUT CONTROL FOR STRESS PERIOD   26   TIME STEP   15
 
 SOLVING FOR HEAD 
                                                   Max.-Head-Change                         Max.-Flux-Residual
  Residual-Control   Outer-Iter.   Inner-Iter.     Column Row Layer    Maximum-Head-Change  Column Row Layer    Maximum-Flux-Residual          L2-NORM 
          0                 1           2             4    7     1       0.1711301661E-01       4    7    1         0.8972178761E+00      0.2276204639E+01
          0                 2           2             4    7     1      -0.1663732830E-02       4    7    1        -0.8967336981E-01      0.2275393347E+00
          0                 3           1             4    7     1       0.1132086157E-03       4    7    1         0.6272391182E-02      0.1591988677E-01
          0                 4           1             4    7     1      -0.4499028667E-05       4    7    1        -0.2562183874E-03      0.6506409534E-03

    ------------------------------------------------
       NWT REQUIRED            4 OUTER ITERATIONS 
       AND A TOTAL OF          6 INNER ITERATIONS.
    ------------------------------------------------

 NO OUTPUT CONTROL FOR STRESS PERIOD   26   TIME STEP   16
 
 SOLVING FOR HEAD 
                                                   Max.-Head-Change                         Max.-Flux-Residual
  Residual-Control   Outer-Iter.   Inner-Iter.     Column Row Layer    Maximum-Head-Change  Column Row Layer    Maximum-Flux-Residual          L2-NORM 
          0                 1           2             4    7     1       0.1695993082E-01       4    7    1         0.8891595945E+00      0.2259455572E+01
          0                 2           2             4    7     1      -0.1648849706E-02       4    7    1        -0.8886797073E-01      0.2258652778E+00
          0                 3           1             4    7     1       0.1121958933E-03       4    7    1         0.6216055715E-02      0.1580276084E-01
          0                 4           1             4    7     1      -0.4458781900E-05       4    7    1        -0.2539171494E-03      0.6457991204E-03

    ------------------------------------------------
       NWT REQUIRED            4 OUTER ITERATIONS 
       AND A TOTAL OF          6 INNER ITERATIONS.
    ------------------------------------------------

 NO OUTPUT CONTROL FOR STRESS PERIOD   26   TIME STEP   17
 
 SOLVING FOR HEAD 
                                                   Max.-Head-Change                         Max.-Flux-Residual
  Residual-Control   Outer-Iter.   Inner-Iter.     Column Row Layer    Maximum-Head-Change  Column Row Layer    Maximum-Flux-Residual          L2-NORM 
          0                 1           2             4    7     1       0.1680899307E-01       4    7    1         0.8812149506E+00      0.2242910508E+01
          0                 2           2             4    7     1      -0.1634175418E-02       4    7    1        -0.8807392949E-01      0.2242116183E+00
          0                 3           1             4    7     1       0.1111973811E-03       4    7    1         0.6160514712E-02      0.1568709407E-01
          0                 4           1             4    7     1      -0.4419099834E-05       4    7    1        -0.2516483578E-03      0.6410716403E-03

    ------------------------------------------------
       NWT REQUIRED            4 OUTER ITERATIONS 
       AND A TOTAL OF          6 INNER ITERATIONS.
    ------------------------------------------------

 NO OUTPUT CONTROL FOR STRESS PERIOD   26   TIME STEP   18
 
 SOLVING FOR HEAD 
                                                   Max.-Head-Change                         Max.-Flux-Residual
  Residual-Control   Outer-Iter.   Inner-Iter.     Column Row Layer    Maximum-Head-Change  Column Row Layer    Maximum-Flux-Residual          L2-NORM 
          0                 1           2             4    7     1       0.1665989204E-01       4    7    1         0.8733670123E+00      0.2226578750E+01
          0                 2           2             4    7     1      -0.1622100645E-02       4    7    1        -0.8744409113E-01      0.2226202312E+00
          0                 3           1             4    7     1       0.1103757994E-03       4    7    1         0.6116460270E-02      0.1557578437E-01
          0                 4           1             4    7     1      -0.4386452640E-05       4    7    1        -0.2498488720E-03      0.6365460639E-03

    ------------------------------------------------
       NWT REQUIRED            4 OUTER ITERATIONS 
       AND A TOTAL OF          6 INNER ITERATIONS.
    ------------------------------------------------

 NO OUTPUT CONTROL FOR STRESS PERIOD   26   TIME STEP   19
 
 SOLVING FOR HEAD 
                                                   Max.-Head-Change                         Max.-Flux-Residual
  Residual-Control   Outer-Iter.   Inner-Iter.     Column Row Layer    Maximum-Head-Change  Column Row Layer    Maximum-Flux-Residual          L2-NORM 
          0                 1           2             4    7     1       0.1650742125E-01       4    7    1         0.8654999318E+00      0.2210394899E+01
          0                 2           2             4    7     1      -0.1604857130E-02       4    7    1        -0.8650329391E-01      0.2209616597E+00
          0                 3           1             4    7     1       0.1092024594E-03       4    7    1         0.6050653725E-02      0.1545974689E-01
          0                 4           1             4    7     1      -0.4339822508E-05       4    7    1        -0.2471607268E-03      0.6317989662E-03

    ------------------------------------------------
       NWT REQUIRED            4 OUTER ITERATIONS 
       AND A TOTAL OF          6 INNER ITERATIONS.
    ------------------------------------------------

 NO OUTPUT CONTROL FOR STRESS PERIOD   26   TIME STEP   20
 
 SOLVING FOR HEAD 
                                                   Max.-Head-Change                         Max.-Flux-Residual
  Residual-Control   Outer-Iter.   Inner-Iter.     Column Row Layer    Maximum-Head-Change  Column Row Layer    Maximum-Flux-Residual          L2-NORM 
          0                 1           2             4    7     1       0.1635930230E-01       4    7    1         0.8576941711E+00      0.2194400719E+01
          0                 2           2             4    7     1      -0.1590456866E-02       4    7    1        -0.8572313218E-01      0.2193630018E+00
          0                 3           1             4    7     1       0.1082225926E-03       4    7    1         0.5996083509E-02      0.1534790638E-01
          0                 4           1             4    7     1      -0.4300880712E-05       4    7    1        -0.2449315828E-03      0.6272302602E-03

    ------------------------------------------------
       NWT REQUIRED            4 OUTER ITERATIONS 
       AND A TOTAL OF          6 INNER ITERATIONS.
    ------------------------------------------------

 NO OUTPUT CONTROL FOR STRESS PERIOD   26   TIME STEP   21
 
 SOLVING FOR HEAD 
                                                   Max.-Head-Change                         Max.-Flux-Residual
  Residual-Control   Outer-Iter.   Inner-Iter.     Column Row Layer    Maximum-Head-Change  Column Row Layer    Maximum-Flux-Residual          L2-NORM 
          0                 1           2             4    7     1       0.1621341565E-01       4    7    1         0.8500070488E+00      0.2178605267E+01
          0                 2           2             4    7     1      -0.1576273631E-02       4    7    1        -0.8495482813E-01      0.2177842398E+00
          0                 3           1             4    7     1       0.1072574938E-03       4    7    1         0.5942342707E-02      0.1523747660E-01
          0                 4           1             4    7     1      -0.4262527219E-05       4    7    1        -0.2427363590E-03      0.6227095375E-03

    ------------------------------------------------
       NWT REQUIRED            4 OUTER ITERATIONS 
       AND A TOTAL OF          6 INNER ITERATIONS.
    ------------------------------------------------

 NO OUTPUT CONTROL FOR STRESS PERIOD   26   TIME STEP   22
 
 SOLVING FOR HEAD 
                                                   Max.-Head-Change                         Max.-Flux-Residual
  Residual-Control   Outer-Iter.   Inner-Iter.     Column Row Layer    Maximum-Head-Change  Column Row Layer    Maximum-Flux-Residual          L2-NORM 
          0                 1           2             4    7     1       0.1606956954E-01       4    7    1         0.8424283339E+00      0.2162999142E+01
          0                 2           2             4    7     1      -0.1562288781E-02       4    7    1        -0.8419735922E-01      0.2162244069E+00
          0                 3           1             4    7     1       0.1063058940E-03       4    7    1         0.5889359817E-02      0.1512837887E-01
          0                 4           1             4    7     1      -0.4224709414E-05       4    7    1        -0.2405720513E-03      0.6182543912E-03

    ------------------------------------------------
       NWT REQUIRED            4 OUTER ITERATIONS 
       AND A TOTAL OF          6 INNER ITERATIONS.
    ------------------------------------------------

 NO OUTPUT CONTROL FOR STRESS PERIOD   26   TIME STEP   23
 
 SOLVING FOR HEAD 
                                                   Max.-Head-Change                         Max.-Flux-Residual
  Residual-Control   Outer-Iter.   Inner-Iter.     Column Row Layer    Maximum-Head-Change  Column Row Layer    Maximum-Flux-Residual          L2-NORM 
          0                 1           2             4    7     1       0.1592758197E-01       4    7    1         0.8349480832E+00      0.2147578609E+01
          0                 2           2             4    7     1      -0.1548484622E-02       4    7    1        -0.8344973163E-01      0.2146831016E+00
          0                 3           1             4    7     1       0.1053665895E-03       4    7    1         0.5837065300E-02      0.1502055210E-01
          0                 4           1             4    7     1      -0.4187380095E-05       4    7    1        -0.2384358761E-03      0.6138527284E-03

    ------------------------------------------------
       NWT REQUIRED            4 OUTER ITERATIONS 
       AND A TOTAL OF          6 INNER ITERATIONS.
    ------------------------------------------------

 NO OUTPUT CONTROL FOR STRESS PERIOD   26   TIME STEP   24
 
 SOLVING FOR HEAD 
                                                   Max.-Head-Change                         Max.-Flux-Residual
  Residual-Control   Outer-Iter.   Inner-Iter.     Column Row Layer    Maximum-Head-Change  Column Row Layer    Maximum-Flux-Residual          L2-NORM 
          0                 1           2             4    7     1       0.1578755121E-01       4    7    1         0.8275715291E+00      0.2132341196E+01
          0                 2           2             4    7     1      -0.1534870707E-02       4    7    1        -0.8271246833E-01      0.2131600967E+00
          0                 3           1             4    7     1       0.1044402299E-03       4    7    1         0.5785495730E-02      0.1491400245E-01
          0                 4           1             4    7     1      -0.4150565512E-05       4    7    1        -0.2363293199E-03      0.6094844610E-03

    ------------------------------------------------
       NWT REQUIRED            4 OUTER ITERATIONS 
       AND A TOTAL OF          6 INNER ITERATIONS.
    ------------------------------------------------

 NO OUTPUT CONTROL FOR STRESS PERIOD   26   TIME STEP   25
 
 SOLVING FOR HEAD 
                                                   Max.-Head-Change                         Max.-Flux-Residual
  Residual-Control   Outer-Iter.   Inner-Iter.     Column Row Layer    Maximum-Head-Change  Column Row Layer    Maximum-Flux-Residual          L2-NORM 
          0                 1           2             4    7     1       0.1564943173E-01       4    7    1         0.8202964322E+00      0.2117285121E+01
          0                 2           2             4    7     1      -0.1521442611E-02       4    7    1        -0.8198534549E-01      0.2116551882E+00
          0                 3           1             4    7     1       0.1035265145E-03       4    7    1         0.5734635467E-02      0.1480873050E-01
          0                 4           1             4    7     1      -0.4114253576E-05       4    7    1        -0.2342517303E-03      0.6051922647E-03

    ------------------------------------------------
       NWT REQUIRED            4 OUTER ITERATIONS 
       AND A TOTAL OF          6 INNER ITERATIONS.
    ------------------------------------------------

 NO OUTPUT CONTROL FOR STRESS PERIOD   26   TIME STEP   26
 
 SOLVING FOR HEAD 
                                                   Max.-Head-Change                         Max.-Flux-Residual
  Residual-Control   Outer-Iter.   Inner-Iter.     Column Row Layer    Maximum-Head-Change  Column Row Layer    Maximum-Flux-Residual          L2-NORM 
          0                 1           2             4    7     1       0.1551317992E-01       4    7    1         0.8131204322E+00      0.2102407378E+01
          0                 2           2             4    7     1      -0.1508196092E-02       4    7    1        -0.8126812718E-01      0.2101681304E+00
          0                 3           1             4    7     1       0.1026251549E-03       4    7    1         0.5684467999E-02      0.1470473017E-01
          0                 4           1             4    7     1      -0.4078432544E-05       4    7    1        -0.2322024632E-03      0.6009500413E-03

    ------------------------------------------------
       NWT REQUIRED            4 OUTER ITERATIONS 
       AND A TOTAL OF          6 INNER ITERATIONS.
    ------------------------------------------------

 NO OUTPUT CONTROL FOR STRESS PERIOD   26   TIME STEP   27
 
 SOLVING FOR HEAD 
                                                   Max.-Head-Change                         Max.-Flux-Residual
  Residual-Control   Outer-Iter.   Inner-Iter.     Column Row Layer    Maximum-Head-Change  Column Row Layer    Maximum-Flux-Residual          L2-NORM 
          0                 1           2             4    7     1       0.1537889354E-01       4    7    1         0.8060486036E+00      0.2087718320E+01
          0                 2           2             4    7     1      -0.1495140657E-02       4    7    1        -0.8056132063E-01      0.2086999485E+00
          0                 3           1             4    7     1       0.1017367974E-03       4    7    1         0.5635028804E-02      0.1460202661E-01
          0                 4           1             4    7     1      -0.4043128551E-05       4    7    1        -0.2301829347E-03      0.5967493433E-03

    ------------------------------------------------
       NWT REQUIRED            4 OUTER ITERATIONS 
       AND A TOTAL OF          6 INNER ITERATIONS.
    ------------------------------------------------

 NO OUTPUT CONTROL FOR STRESS PERIOD   26   TIME STEP   28
 
 SOLVING FOR HEAD 
                                                   Max.-Head-Change                         Max.-Flux-Residual
  Residual-Control   Outer-Iter.   Inner-Iter.     Column Row Layer    Maximum-Head-Change  Column Row Layer    Maximum-Flux-Residual          L2-NORM 
          0                 1           2             4    7     1       0.1524625249E-01       4    7    1         0.7990640082E+00      0.2073185520E+01
          0                 2           2             4    7     1      -0.1482245184E-02       4    7    1        -0.7986323286E-01      0.2072473204E+00
          0                 3           1             4    7     1       0.1008593242E-03       4    7    1         0.5586199455E-02      0.1450039678E-01
          0                 4           1             4    7     1      -0.4008256400E-05       4    7    1        -0.2281883076E-03      0.5926017535E-03

    ------------------------------------------------
       NWT REQUIRED            4 OUTER ITERATIONS 
       AND A TOTAL OF          6 INNER ITERATIONS.
    ------------------------------------------------

 NO OUTPUT CONTROL FOR STRESS PERIOD   26   TIME STEP   29
 
 SOLVING FOR HEAD 
                                                   Max.-Head-Change                         Max.-Flux-Residual
  Residual-Control   Outer-Iter.   Inner-Iter.     Column Row Layer    Maximum-Head-Change  Column Row Layer    Maximum-Flux-Residual          L2-NORM 
          0                 1           2             4    7     1       0.1511536185E-01       4    7    1         0.7921720559E+00      0.2058827459E+01
          0                 2           2             4    7     1      -0.1469519887E-02       4    7    1        -0.7917440453E-01      0.2058121711E+00
          0                 3           1             4    7     1       0.9999343109E-04       4    7    1         0.5538017800E-02      0.1439999224E-01

    ------------------------------------------------
       NWT REQUIRED            3 OUTER ITERATIONS 
       AND A TOTAL OF          5 INNER ITERATIONS.
    ------------------------------------------------

 NO OUTPUT CONTROL FOR STRESS PERIOD   26   TIME STEP   30



 STREAM LISTING     PERIOD     26   STEP       30

 LAYER ROW COL. STREAM  RCH.  FLOW INTO     FLOW TO   FLOW OUT OF   OVRLND.     DIRECT     STREAM       STREAM     STREAM     STREAM   STREAMBED  STREAMBED
                SEG.NO.  NO.  STRM. RCH.    AQUIFER    STRM. RCH.    RUNOFF     PRECIP       ET          HEAD       DEPTH      WIDTH   CONDCTNC.   GRADIENT

   1    1    1     1     1    1.9000E+01  2.1427E-01   1.8786E+01  0.000E+00  0.000E+00  0.000E+00  1.09413E+03  1.082E+00  1.166E+01  5.249E-02  1.361E+00
   1    2    2     1     2    1.8786E+01  3.3054E-01   1.8455E+01  0.000E+00  0.000E+00  0.000E+00  1.08914E+03  1.077E+00  1.158E+01  8.107E-02  1.359E+00
   1    3    3     1     3    1.8455E+01  2.8064E-01   1.8175E+01  0.000E+00  0.000E+00  0.000E+00  1.08349E+03  1.072E+00  1.149E+01  6.892E-02  1.357E+00
   1    3    4     1     4    1.8175E+01  2.5740E-01   1.7917E+01  0.000E+00  0.000E+00  0.000E+00  1.07848E+03  1.068E+00  1.140E+01  6.328E-02  1.356E+00
   1    4    5     2     1    1.5917E+01  3.0542E-01   1.5612E+01  0.000E+00  0.000E+00  0.000E+00  1.07285E+03  9.157E-01  1.200E+01  7.800E-02  1.305E+00
   1    5    6     2     2    1.5612E+01  2.3438E-01   1.5377E+01  0.000E+00  0.000E+00  0.000E+00  1.06742E+03  9.063E-01  1.200E+01  6.000E-02  1.302E+00
   1    6    6     2     3    1.5377E+01  2.3388E-01   1.5143E+01  0.000E+00  0.000E+00  0.000E+00  1.06269E+03  8.980E-01  1.200E+01  6.000E-02  1.299E+00
   1    7    6     2     4    1.5143E+01  2.3338E-01   1.4910E+01  0.000E+00  0.000E+00  0.000E+00  1.05797E+03  8.897E-01  1.200E+01  6.000E-02  1.297E+00
   1    8    6     2     5    1.4910E+01  2.3289E-01   1.4677E+01  0.000E+00  0.000E+00  0.000E+00  1.05324E+03  8.814E-01  1.200E+01  6.000E-02  1.294E+00
   1    3    5     3     1    2.0000E+00  2.8252E-01   1.7175E+00  0.000E+00  0.000E+00  0.000E+00  1.07555E+03  1.909E+00  9.636E+00  7.227E-02  1.955E+00
   1    3    6     3     2    1.7175E+00  2.4905E-01   1.4684E+00  0.000E+00  0.000E+00  0.000E+00  1.07264E+03  1.727E+00  8.909E+00  6.682E-02  1.864E+00
   1    3    7     3     3    1.4684E+00  1.9718E-01   1.2712E+00  0.000E+00  0.000E+00  0.000E+00  1.06987E+03  1.555E+00  8.218E+00  5.547E-02  1.777E+00
   1    4    8     3     4    1.2712E+00  2.2567E-01   1.0456E+00  0.000E+00  0.000E+00  0.000E+00  1.06682E+03  1.364E+00  7.455E+00  6.709E-02  1.682E+00
   1    5    8     3     5    1.0456E+00  1.5790E-01   8.8768E-01  0.000E+00  0.000E+00  0.000E+00  1.06362E+03  1.164E+00  6.655E+00  4.991E-02  1.582E+00
   1    6    8     3     6    8.8768E-01  5.5980E-02   8.3170E-01  0.000E+00  0.000E+00  0.000E+00  1.06158E+03  1.036E+00  6.145E+00  1.844E-02  1.518E+00
   1    5   10     4     1    1.0000E+01  9.0919E-02   9.9091E+00  0.000E+00  0.000E+00  0.000E+00  1.07836E+03  6.368E-01  1.000E+01  2.500E-02  1.212E+00
   1    5    9     4     2    9.9091E+00  1.8158E-01   9.7275E+00  0.000E+00  0.000E+00  0.000E+00  1.07154E+03  6.315E-01  1.000E+01  5.000E-02  1.211E+00
   1    6    8     4     3    9.7275E+00  1.2689E-01   9.6006E+00  0.000E+00  0.000E+00  0.000E+00  1.06381E+03  6.256E-01  1.000E+01  3.500E-02  1.209E+00
   1    6    8     5     1    1.0432E+01  2.2686E-01   1.0205E+01  0.000E+00  0.000E+00  0.000E+00  1.05868E+03  6.790E-01  1.542E+01  6.166E-02  1.226E+00
   1    7    7     5     2    1.0205E+01  2.7894E-01   9.9265E+00  0.000E+00  0.000E+00  0.000E+00  1.05417E+03  6.732E-01  1.519E+01  7.594E-02  1.224E+00
   1    8    7     5     3    9.9265E+00  1.9221E-01   9.7343E+00  0.000E+00  0.000E+00  0.000E+00  1.04992E+03  6.676E-01  1.497E+01  5.241E-02  1.223E+00
   1    8    6     5     4    9.7343E+00  1.3577E-01   9.5985E+00  0.000E+00  0.000E+00  0.000E+00  1.04691E+03  6.637E-01  1.482E+01  3.706E-02  1.221E+00
   1    9    6     6     1    2.4276E+01  2.5176E-01   2.4024E+01  0.000E+00  0.000E+00  0.000E+00  1.04392E+03  1.196E+00  1.200E+01  6.000E-02  1.399E+00
   1   10    7     6     2    2.4024E+01  2.5131E-01   2.3773E+01  0.000E+00  0.000E+00  0.000E+00  1.03937E+03  1.188E+00  1.200E+01  6.000E-02  1.396E+00
   1   11    7     6     3    2.3773E+01  2.5086E-01   2.3522E+01  0.000E+00  0.000E+00  0.000E+00  1.03482E+03  1.181E+00  1.200E+01  6.000E-02  1.394E+00
   1   12    7     6     4    2.3522E+01  2.5041E-01   2.3271E+01  0.000E+00  0.000E+00  0.000E+00  1.03026E+03  1.173E+00  1.200E+01  6.000E-02  1.391E+00
   1   13    7     6     5    2.3271E+01  3.5486E-03   2.3268E+01  0.000E+00  0.000E+00  0.000E+00  1.02708E+03  1.170E+00  1.200E+01  2.400E-02  4.929E-02
   1   14    9     7     1    1.5000E+02  1.3390E+00   1.4866E+02  0.000E+00  0.000E+00  0.000E+00  1.03987E+03  2.288E+00  5.529E+01  5.593E-01  7.980E-01
   1   13    8     7     2    1.4866E+02  1.8650E+00   1.4680E+02  0.000E+00  0.000E+00  0.000E+00  1.03478E+03  2.279E+00  5.526E+01  6.148E-01  1.011E+00
   1   13    7     7     3    1.4680E+02  1.5405E+00   1.4526E+02  0.000E+00  0.000E+00  0.000E+00  1.02969E+03  2.270E+00  5.522E+01  5.584E-01  9.195E-01
   1   13    6     8     1    1.6852E+02  9.9173E-01   1.6753E+02  0.000E+00  0.000E+00  0.000E+00  1.02481E+03  2.939E+00  4.262E+01  4.343E-01  7.612E-01
   1   13    5     8     2    1.6753E+02  2.5076E-01   1.6728E+02  0.000E+00  0.000E+00  0.000E+00  1.01856E+03  2.935E+00  4.256E+01  4.337E-01  1.927E-01
   1   13    4     8     3    1.6728E+02 -2.1643E+00   1.6945E+02  0.000E+00  0.000E+00  0.000E+00  1.01232E+03  2.942E+00  4.265E+01  4.346E+00 -1.660E-01
   1   13    3     8     4    1.6945E+02 -3.5307E+00   1.7298E+02  0.000E+00  0.000E+00  0.000E+00  1.00609E+03  2.960E+00  4.292E+01  4.374E+00 -2.691E-01
   1   13    2     8     5    1.7298E+02 -2.5577E+00   1.7553E+02  0.000E+00  0.000E+00  0.000E+00  9.99855E+02  2.980E+00  4.321E+01  4.403E+00 -1.936E-01
   1   13    1     8     6    1.7553E+02 -1.9825E+00   1.7752E+02  0.000E+00  0.000E+00  0.000E+00  9.94869E+02  2.994E+00  4.342E+01  2.655E+00 -2.489E-01





UNSATURATED ZONE PACKAGE VOLUMETRIC BUDGET FOR  TIME STEP    30 STRESS PERIOD   26
  ------------------------------------------------------------------------------



     CUMULATIVE VOLUMES      L**3       RATES FOR THIS TIME STEP      L**3/T
     ------------------                 ------------------------

           IN:                                      IN:
           ---                                      ---
        INFILTRATION =   925880957.1828          INFILTRATION =           0.8475

          OUT:                                     OUT:
          ----                                     ----
              UZF ET =   849184097.9245                UZF ET =           0.7500
        UZF RECHARGE =    75854465.2627          UZF RECHARGE =           0.0002

            IN - OUT =      842393.9955              IN - OUT =       9.7306E-02

          STORAGE:                                 STORAGE:
          --------                                 --------
      STORAGE CHANGE =      842397.9710        STORAGE CHANGE =       9.7306E-02

 PERCENT DISCREPANCY IS DIFFERENCE BETWEEN IN-OUT MINUS CHANGE IN STORAGE
 DIVIDED BY THE AVERAGE OF IN AND OUT TIMES 100

 PERCENT DISCREPANCY =           0.00     PERCENT DISCREPANCY =           0.00






1
  VOLUMETRIC BUDGET FOR AGRICULTURAL FIELDS AT  END OF TIME STEP   30, STRESS PERIOD  26
  ------------------------------------------------------------------------------

     CUMULATIVE VOLUMES      L**3       RATES FOR THIS TIME STEP      L**3/T
     ------------------                 ------------------------

           IN:                                      IN:
           ---                                      ---
               AG WELLS  =   870083328.0000                 AG WELLS  =           0.0000
      DIVERSION SEGMENTS =           0.0000        DIVERSION SEGMENTS =           0.0000
           GW IRRIGATION =           0.0000             GW IRRIGATION =           0.0000
           SW IRRIGATION =           0.0000             SW IRRIGATION =           0.0000
        SYSTEM LOSSES GW =           0.0000          SYSTEM LOSSES GW =           0.0000
        SYSTEM LOSSES SW =           0.0000          SYSTEM LOSSES SW =           0.0000

                TOTAL IN =   870083328.0000                  TOTAL IN =           0.0000

          OUT:                                     OUT:
          ----                                     ----
               AG WELLS  =           0.0000                 AG WELLS  =           0.0000
      DIVERSION SEGMENTS =           0.0000        DIVERSION SEGMENTS =           0.0000
           GW IRRIGATION =   870083328.0000             GW IRRIGATION =           0.0000
           SW IRRIGATION =           0.0000             SW IRRIGATION =           0.0000
        SYSTEM LOSSES GW =           0.0000          SYSTEM LOSSES GW =           0.0000
        SYSTEM LOSSES SW =           0.0000          SYSTEM LOSSES SW =           0.0000

               TOTAL OUT =   870083328.0000                 TOTAL OUT =           0.0000

                IN - OUT =           0.0000                  IN - OUT =           0.0000

     PERCENT DISCREPANCY =           0.00         PERCENT DISCREPANCY =           0.00



1
  VOLUMETRIC BUDGET FOR ENTIRE MODEL AT END OF TIME STEP   30, STRESS PERIOD  26
  ------------------------------------------------------------------------------

     CUMULATIVE VOLUMES      L**3       RATES FOR THIS TIME STEP      L**3/T
     ------------------                 ------------------------

           IN:                                      IN:
           ---                                      ---
             STORAGE     =  1161795072.0000               STORAGE     =           6.0915
       CONSTANT HEAD     =           0.0000         CONSTANT HEAD     =           0.0000
     HEAD DEP BOUNDS     =    18796054.0000       HEAD DEP BOUNDS     =           0.2860
      STREAM LEAKAGE     =   815666560.0000        STREAM LEAKAGE     =          11.7191
        UZF RECHARGE     =    75854480.0000          UZF RECHARGE     =       1.9372E-04
               GW ET     =           0.0000                 GW ET     =           0.0000
     SURFACE LEAKAGE     =           0.0000       SURFACE LEAKAGE     =           0.0000
           AG WELLS      =           0.0000             AG WELLS      =           0.0000

                TOTAL IN =  2072112128.0000                  TOTAL IN =          18.0967

          OUT:                                     OUT:
          ----                                     ----
             STORAGE     =   482676352.0000               STORAGE     =           7.5725
       CONSTANT HEAD     =           0.0000         CONSTANT HEAD     =           0.0000
     HEAD DEP BOUNDS     =    19347226.0000       HEAD DEP BOUNDS     =           0.2894
      STREAM LEAKAGE     =   682392640.0000        STREAM LEAKAGE     =          10.2352
        UZF RECHARGE     =           0.0000          UZF RECHARGE     =           0.0000
               GW ET     =    17607600.0000                 GW ET     =           0.0000
     SURFACE LEAKAGE     =           0.0000       SURFACE LEAKAGE     =           0.0000
           AG WELLS      =   870083328.0000             AG WELLS      =           0.0000

               TOTAL OUT =  2072107136.0000                 TOTAL OUT =          18.0971

                IN - OUT =        4992.0000                  IN - OUT =      -4.1580E-04

     PERCENT DISCREPANCY =           0.00         PERCENT DISCREPANCY =          -0.00






         TIME SUMMARY AT END OF TIME STEP   30 IN STRESS PERIOD   26
                    SECONDS     MINUTES      HOURS       DAYS        YEARS
                    -----------------------------------------------------------
   TIME STEP LENGTH  87667.      1461.1      24.352      1.0147     2.77799E-03
 STRESS PERIOD TIME 2.63000E+06  43833.      730.56      30.440     8.33397E-02
         TOTAL TIME 6.58368E+07 1.09728E+06  18288.      762.00      2.0862    
1
1
                            STRESS PERIOD NO.   27, LENGTH =   2630000.    
                            -----------------------------------------------

                              NUMBER OF TIME STEPS =    30

                               MULTIPLIER FOR DELT =     1.000

                            INITIAL TIME STEP SIZE =   87666.66    

 REUSING NON-PARAMETER GHB CELLS FROM LAST STRESS PERIOD

      2 GHB CELLS

 REUSING STREAM SEGMENT DATA FROM LAST STRESS PERIOD



            AREAL INFILTRATION RATE
 READING ON UNIT   19 WITH FORMAT: (FREE)              

            1           2           3           4           5           6           7           8           9          10
 ........................................................................................................................
   1   1.0000E-10  2.0000E-10   0.000       0.000       0.000       0.000       0.000       0.000       0.000       0.000    
   2   2.0000E-10  1.0000E-10  2.0000E-10   0.000       0.000      8.0000E-10  8.0000E-10  5.0000E-10   0.000       0.000    
   3    0.000      5.0000E-10  1.0000E-10  1.0000E-10  8.0000E-10  8.0000E-10  5.0000E-10  5.0000E-10   0.000       0.000    
   4   8.0000E-10  5.0000E-10  1.0000E-10  1.0000E-10  1.0000E-10  1.0000E-10  1.0000E-10  1.0000E-10  2.0000E-10   0.000    
   5   8.0000E-10  5.0000E-10  1.0000E-10  1.0000E-10  1.0000E-10  1.0000E-10  1.0000E-10  1.0000E-10  1.0000E-10  1.0000E-10
   6   8.0000E-10  5.0000E-10  5.0000E-10  2.0000E-10  2.0000E-10  1.0000E-10  1.0000E-10  1.0000E-10  1.0000E-10  5.0000E-10
   7   8.0000E-10  5.0000E-10  5.0000E-10  2.0000E-10  2.0000E-10  1.0000E-10  1.0000E-10  2.0000E-10  2.0000E-10   0.000    
   8    0.000      5.0000E-10  5.0000E-10  2.0000E-10  2.0000E-10  1.0000E-10  1.0000E-10  2.0000E-10  5.0000E-10   0.000    
   9    0.000      5.0000E-10  5.0000E-10  2.0000E-10  2.0000E-10  1.0000E-10  1.0000E-10  2.0000E-10  5.0000E-10   0.000    
  10    0.000      5.0000E-10  5.0000E-10  2.0000E-10  2.0000E-10  1.0000E-10  1.0000E-10  2.0000E-10  5.0000E-10  8.0000E-10
  11    0.000      1.0000E-10  1.0000E-10  1.0000E-10  1.0000E-10  1.0000E-10  1.0000E-10  2.0000E-10  5.0000E-10   0.000    
  12   1.0000E-10  1.0000E-10  1.0000E-10  1.0000E-10  1.0000E-10  1.0000E-10  1.0000E-10  1.0000E-10  2.0000E-10   0.000    
  13   1.0000E-10  1.0000E-10  2.0000E-10  2.0000E-10  2.0000E-10  2.0000E-10  2.0000E-10  1.0000E-10  1.0000E-10   0.000    
  14    0.000      2.0000E-10  5.0000E-10  5.0000E-10  5.0000E-10  5.0000E-10  5.0000E-10  2.0000E-10  1.0000E-10   0.000    
  15    0.000       0.000      8.0000E-10  8.0000E-10  8.0000E-10  8.0000E-10   0.000       0.000       0.000       0.000    

                  ET RATE =  5.000000E-10

 USING ET EXTINCTION DEPTH FROM PREVIOUS STRESS PERIOD. CURRENT PERIOD IS:      27

 USING EXTINCTION WATER CONTENT FROM PREVIOUS STRESS PERIOD. CURRENT PERIOD IS:      27

 USING AIR ENTRY PRESSURE FROM PREVIOUS STRESS PERIOD. CURRENT PERIOD IS:      27

 USING ROOT PRESSURE HEAD FROM PREVIOUS STRESS PERIOD. CURRENT PERIOD IS:      27

 USING ROOT ACTIVITY FROM PREVIOUS STRESS PERIOD. CURRENT PERIOD IS:      27

 PROCESSING AG STRESS PERIOD DATA

 READING AG STRESS PERIOD DATA

 READING IRRIGATION WELL

 END PROCESSING AG STRESS PERIOD DATA OPTIONS
 
 SOLVING FOR HEAD 
                                                   Max.-Head-Change                         Max.-Flux-Residual
  Residual-Control   Outer-Iter.   Inner-Iter.     Column Row Layer    Maximum-Head-Change  Column Row Layer    Maximum-Flux-Residual          L2-NORM 
          0                 1           2             4    7     1       0.1498614048E-01       4    7    1         0.7853684178E+00      0.2044638134E+01
          0                 2           2             4    7     1      -0.1456956881E-02       4    7    1        -0.7849440306E-01      0.2043939184E+00
          0                 3           1             4    7     1       0.9913858096E-04       4    7    1         0.5490453568E-02      0.1430078125E-01

    ------------------------------------------------
       NWT REQUIRED            3 OUTER ITERATIONS 
       AND A TOTAL OF          5 INNER ITERATIONS.
    ------------------------------------------------

 NO OUTPUT CONTROL FOR STRESS PERIOD   27   TIME STEP    1
 
 SOLVING FOR HEAD 
                                                   Max.-Head-Change                         Max.-Flux-Residual
  Residual-Control   Outer-Iter.   Inner-Iter.     Column Row Layer    Maximum-Head-Change  Column Row Layer    Maximum-Flux-Residual          L2-NORM 
          0                 1           2             4    7     1       0.1485859842E-01       4    7    1         0.7786538001E+00      0.2030606199E+01
          0                 2           2             4    7     1      -0.1444557139E-02       4    7    1        -0.7782329899E-01      0.2029913646E+00
          0                 3           1             4    7     1       0.9829483992E-04       4    7    1         0.5443511667E-02      0.1420267153E-01

    ------------------------------------------------
       NWT REQUIRED            3 OUTER ITERATIONS 
       AND A TOTAL OF          5 INNER ITERATIONS.
    ------------------------------------------------

 NO OUTPUT CONTROL FOR STRESS PERIOD   27   TIME STEP    2
 
 SOLVING FOR HEAD 
                                                   Max.-Head-Change                         Max.-Flux-Residual
  Residual-Control   Outer-Iter.   Inner-Iter.     Column Row Layer    Maximum-Head-Change  Column Row Layer    Maximum-Flux-Residual          L2-NORM 
          0                 1           2             4    7     1       0.1473283747E-01       4    7    1         0.7720335881E+00      0.2016743371E+01
          0                 2           2             4    7     1      -0.1432330560E-02       4    7    1        -0.7716163057E-01      0.2016057232E+00
          0                 3           1             4    7     1       0.9746288201E-04       4    7    1         0.5397229773E-02      0.1410573919E-01

    ------------------------------------------------
       NWT REQUIRED            3 OUTER ITERATIONS 
       AND A TOTAL OF          5 INNER ITERATIONS.
    ------------------------------------------------

 NO OUTPUT CONTROL FOR STRESS PERIOD   27   TIME STEP    3
 
 SOLVING FOR HEAD 
                                                   Max.-Head-Change                         Max.-Flux-Residual
  Residual-Control   Outer-Iter.   Inner-Iter.     Column Row Layer    Maximum-Head-Change  Column Row Layer    Maximum-Flux-Residual          L2-NORM 
          0                 1           2             4    7     1       0.1460854683E-01       4    7    1         0.7654910497E+00      0.2003033202E+01
          0                 2           2             4    7     1      -0.1420246926E-02       4    7    1        -0.7650772546E-01      0.2002353579E+00
          0                 3           1             4    7     1       0.9664065102E-04       4    7    1         0.5351490907E-02      0.1400987280E-01

    ------------------------------------------------
       NWT REQUIRED            3 OUTER ITERATIONS 
       AND A TOTAL OF          5 INNER ITERATIONS.
    ------------------------------------------------

 NO OUTPUT CONTROL FOR STRESS PERIOD   27   TIME STEP    4
 
 SOLVING FOR HEAD 
                                                   Max.-Head-Change                         Max.-Flux-Residual
  Residual-Control   Outer-Iter.   Inner-Iter.     Column Row Layer    Maximum-Head-Change  Column Row Layer    Maximum-Flux-Residual          L2-NORM 
          0                 1           2             4    7     1       0.1448597154E-01       4    7    1         0.7590394180E+00      0.1989489280E+01
          0                 2           2             4    7     1      -0.1408330063E-02       4    7    1        -0.7586290626E-01      0.1988815741E+00
          0                 3           1             4    7     1       0.9582976744E-04       4    7    1         0.5306387568E-02      0.1391516298E-01

    ------------------------------------------------
       NWT REQUIRED            3 OUTER ITERATIONS 
       AND A TOTAL OF          5 INNER ITERATIONS.
    ------------------------------------------------

 NO OUTPUT CONTROL FOR STRESS PERIOD   27   TIME STEP    5
 
 SOLVING FOR HEAD 
                                                   Max.-Head-Change                         Max.-Flux-Residual
  Residual-Control   Outer-Iter.   Inner-Iter.     Column Row Layer    Maximum-Head-Change  Column Row Layer    Maximum-Flux-Residual          L2-NORM 
          0                 1           2             4    7     1       0.1436493875E-01       4    7    1         0.7526693872E+00      0.1976092700E+01
          0                 2           2             4    7     1      -0.1396563162E-02       4    7    1        -0.7522624289E-01      0.1975425322E+00
          0                 3           1             4    7     1       0.9502908816E-04       4    7    1         0.5261854710E-02      0.1382147078E-01

    ------------------------------------------------
       NWT REQUIRED            3 OUTER ITERATIONS 
       AND A TOTAL OF          5 INNER ITERATIONS.
    ------------------------------------------------

 NO OUTPUT CONTROL FOR STRESS PERIOD   27   TIME STEP    6
 
 SOLVING FOR HEAD 
                                                   Max.-Head-Change                         Max.-Flux-Residual
  Residual-Control   Outer-Iter.   Inner-Iter.     Column Row Layer    Maximum-Head-Change  Column Row Layer    Maximum-Flux-Residual          L2-NORM 
          0                 1           2             4    7     1       0.1424541629E-01       4    7    1         0.7463793312E+00      0.1962852644E+01
          0                 2           2             4    7     1      -0.1384943099E-02       4    7    1        -0.7459757285E-01      0.1962191402E+00
          0                 3           1             4    7     1       0.9423840098E-04       4    7    1         0.5217880977E-02      0.1372891474E-01

    ------------------------------------------------
       NWT REQUIRED            3 OUTER ITERATIONS 
       AND A TOTAL OF          5 INNER ITERATIONS.
    ------------------------------------------------

 NO OUTPUT CONTROL FOR STRESS PERIOD   27   TIME STEP    7
 
 SOLVING FOR HEAD 
                                                   Max.-Head-Change                         Max.-Flux-Residual
  Residual-Control   Outer-Iter.   Inner-Iter.     Column Row Layer    Maximum-Head-Change  Column Row Layer    Maximum-Flux-Residual          L2-NORM 
          0                 1           2             4    7     1       0.1412737743E-01       4    7    1         0.7401675833E+00      0.1949759798E+01
          0                 2           2             4    7     1      -0.1373467273E-02       4    7    1        -0.7397672949E-01      0.1949104485E+00
          0                 3           1             4    7     1       0.9345752817E-04       4    7    1         0.5174454700E-02      0.1363737935E-01

    ------------------------------------------------
       NWT REQUIRED            3 OUTER ITERATIONS 
       AND A TOTAL OF          5 INNER ITERATIONS.
    ------------------------------------------------

 NO OUTPUT CONTROL FOR STRESS PERIOD   27   TIME STEP    8
 
 SOLVING FOR HEAD 
                                                   Max.-Head-Change                         Max.-Flux-Residual
  Residual-Control   Outer-Iter.   Inner-Iter.     Column Row Layer    Maximum-Head-Change  Column Row Layer    Maximum-Flux-Residual          L2-NORM 
          0                 1           2             4    7     1       0.1401079398E-01       4    7    1         0.7340327571E+00      0.1936817611E+01
          0                 2           2             4    7     1      -0.1362132945E-02       4    7    1        -0.7336357429E-01      0.1936168220E+00
          0                 3           1             4    7     1       0.9268628346E-04       4    7    1         0.5131566191E-02      0.1354687175E-01

    ------------------------------------------------
       NWT REQUIRED            3 OUTER ITERATIONS 
       AND A TOTAL OF          5 INNER ITERATIONS.
    ------------------------------------------------

 NO OUTPUT CONTROL FOR STRESS PERIOD   27   TIME STEP    9
 
 SOLVING FOR HEAD 
                                                   Max.-Head-Change                         Max.-Flux-Residual
  Residual-Control   Outer-Iter.   Inner-Iter.     Column Row Layer    Maximum-Head-Change  Column Row Layer    Maximum-Flux-Residual          L2-NORM 
          0                 1           2             4    7     1       0.1389577280E-01       4    7    1         0.7279807298E+00      0.1924018949E+01
          0                 2           2             4    7     1      -0.1350950503E-02       4    7    1        -0.7275869466E-01      0.1923375423E+00
          0                 3           1             4    7     1       0.9192537369E-04       4    7    1         0.5089256514E-02      0.1345737085E-01

    ------------------------------------------------
       NWT REQUIRED            3 OUTER ITERATIONS 
       AND A TOTAL OF          5 INNER ITERATIONS.
    ------------------------------------------------

 NO OUTPUT CONTROL FOR STRESS PERIOD   27   TIME STEP   10
 
 SOLVING FOR HEAD 
                                                   Max.-Head-Change                         Max.-Flux-Residual
  Residual-Control   Outer-Iter.   Inner-Iter.     Column Row Layer    Maximum-Head-Change  Column Row Layer    Maximum-Flux-Residual          L2-NORM 
          0                 1           2             4    7     1       0.1378214555E-01       4    7    1         0.7220023646E+00      0.1911368616E+01
          0                 2           2             4    7     1      -0.1339903580E-02       4    7    1        -0.7216117735E-01      0.1910730943E+00
          0                 3           1             4    7     1       0.9117368577E-04       4    7    1         0.5047461833E-02      0.1336890925E-01

    ------------------------------------------------
       NWT REQUIRED            3 OUTER ITERATIONS 
       AND A TOTAL OF          5 INNER ITERATIONS.
    ------------------------------------------------

 NO OUTPUT CONTROL FOR STRESS PERIOD   27   TIME STEP   11
 
 SOLVING FOR HEAD 
                                                   Max.-Head-Change                         Max.-Flux-Residual
  Residual-Control   Outer-Iter.   Inner-Iter.     Column Row Layer    Maximum-Head-Change  Column Row Layer    Maximum-Flux-Residual          L2-NORM 
          0                 1           2             4    7     1       0.1367002173E-01       4    7    1         0.7161036106E+00      0.1898855770E+01
          0                 2           2             4    7     1      -0.1329002823E-02       4    7    1        -0.7157161702E-01      0.1898223233E+00
          0                 3           1             4    7     1       0.9043194333E-04       4    7    1         0.5006223710E-02      0.1328135582E-01

    ------------------------------------------------
       NWT REQUIRED            3 OUTER ITERATIONS 
       AND A TOTAL OF          5 INNER ITERATIONS.
    ------------------------------------------------

 NO OUTPUT CONTROL FOR STRESS PERIOD   27   TIME STEP   12
 
 SOLVING FOR HEAD 
                                                   Max.-Head-Change                         Max.-Flux-Residual
  Residual-Control   Outer-Iter.   Inner-Iter.     Column Row Layer    Maximum-Head-Change  Column Row Layer    Maximum-Flux-Residual          L2-NORM 
          0                 1           2             4    7     1       0.1355909721E-01       4    7    1         0.7102681285E+00      0.1886483993E+01
          0                 2           2             4    7     1      -0.1318218664E-02       4    7    1        -0.7098838056E-01      0.1885857361E+00
          0                 3           1             4    7     1       0.8969813525E-04       4    7    1         0.4965427941E-02      0.1319490385E-01

    ------------------------------------------------
       NWT REQUIRED            3 OUTER ITERATIONS 
       AND A TOTAL OF          5 INNER ITERATIONS.
    ------------------------------------------------

 NO OUTPUT CONTROL FOR STRESS PERIOD   27   TIME STEP   13
 
 SOLVING FOR HEAD 
                                                   Max.-Head-Change                         Max.-Flux-Residual
  Residual-Control   Outer-Iter.   Inner-Iter.     Column Row Layer    Maximum-Head-Change  Column Row Layer    Maximum-Flux-Residual          L2-NORM 
          0                 1           2             4    7     1       0.1344962833E-01       4    7    1         0.7045095065E+00      0.1874247198E+01
          0                 2           2             4    7     1      -0.1307576024E-02       4    7    1        -0.7041282605E-01      0.1873626152E+00
          0                 3           1             4    7     1       0.8897395646E-04       4    7    1         0.4925169486E-02      0.1310934056E-01

    ------------------------------------------------
       NWT REQUIRED            3 OUTER ITERATIONS 
       AND A TOTAL OF          5 INNER ITERATIONS.
    ------------------------------------------------

 NO OUTPUT CONTROL FOR STRESS PERIOD   27   TIME STEP   14
 
 SOLVING FOR HEAD 
                                                   Max.-Head-Change                         Max.-Flux-Residual
  Residual-Control   Outer-Iter.   Inner-Iter.     Column Row Layer    Maximum-Head-Change  Column Row Layer    Maximum-Flux-Residual          L2-NORM 
          0                 1           2             4    7     1       0.1334158188E-01       4    7    1         0.6988263570E+00      0.1862146767E+01
          0                 2           2             4    7     1      -0.1297071675E-02       4    7    1        -0.6984481487E-01      0.1861500768E+00
          0                 3           1             4    7     1       0.8825918791E-04       4    7    1         0.4885438691E-02      0.1302451927E-01

    ------------------------------------------------
       NWT REQUIRED            3 OUTER ITERATIONS 
       AND A TOTAL OF          5 INNER ITERATIONS.
    ------------------------------------------------

 NO OUTPUT CONTROL FOR STRESS PERIOD   27   TIME STEP   15
 
 SOLVING FOR HEAD 
                                                   Max.-Head-Change                         Max.-Flux-Residual
  Residual-Control   Outer-Iter.   Inner-Iter.     Column Row Layer    Maximum-Head-Change  Column Row Layer    Maximum-Flux-Residual          L2-NORM 
          0                 1           2             4    7     1       0.1323466248E-01       4    7    1         0.6932022782E+00      0.1850183579E+01
          0                 2           2             4    7     1      -0.1286676898E-02       4    7    1        -0.6928270762E-01      0.1849573589E+00
          0                 3           1             4    7     1       0.8755187481E-04       4    7    1         0.4846120829E-02      0.1294111040E-01

    ------------------------------------------------
       NWT REQUIRED            3 OUTER ITERATIONS 
       AND A TOTAL OF          5 INNER ITERATIONS.
    ------------------------------------------------

 NO OUTPUT CONTROL FOR STRESS PERIOD   27   TIME STEP   16
 
 SOLVING FOR HEAD 
                                                   Max.-Head-Change                         Max.-Flux-Residual
  Residual-Control   Outer-Iter.   Inner-Iter.     Column Row Layer    Maximum-Head-Change  Column Row Layer    Maximum-Flux-Residual          L2-NORM 
          0                 1           2             4    7     1       0.1312925709E-01       4    7    1         0.6876586547E+00      0.1838355580E+01
          0                 2           2             4    7     1      -0.1276429317E-02       4    7    1        -0.6872864171E-01      0.1837751061E+00
          0                 3           1             4    7     1       0.8685457807E-04       4    7    1         0.4807365479E-02      0.1285838504E-01

    ------------------------------------------------
       NWT REQUIRED            3 OUTER ITERATIONS 
       AND A TOTAL OF          5 INNER ITERATIONS.
    ------------------------------------------------

 NO OUTPUT CONTROL FOR STRESS PERIOD   27   TIME STEP   17
 
 SOLVING FOR HEAD 
                                                   Max.-Head-Change                         Max.-Flux-Residual
  Residual-Control   Outer-Iter.   Inner-Iter.     Column Row Layer    Maximum-Head-Change  Column Row Layer    Maximum-Flux-Residual          L2-NORM 
          0                 1           2             4    7     1       0.1302492544E-01       4    7    1         0.6821715093E+00      0.1826652737E+01
          0                 2           2             4    7     1      -0.1266286124E-02       4    7    1        -0.6818022062E-01      0.1826052943E+00
          0                 3           1             4    7     1       0.8616438438E-04       4    7    1         0.4769004937E-02      0.1277653347E-01

    ------------------------------------------------
       NWT REQUIRED            3 OUTER ITERATIONS 
       AND A TOTAL OF          5 INNER ITERATIONS.
    ------------------------------------------------

 NO OUTPUT CONTROL FOR STRESS PERIOD   27   TIME STEP   18
 
 SOLVING FOR HEAD 
                                                   Max.-Head-Change                         Max.-Flux-Residual
  Residual-Control   Outer-Iter.   Inner-Iter.     Column Row Layer    Maximum-Head-Change  Column Row Layer    Maximum-Flux-Residual          L2-NORM 
          0                 1           2             4    7     1       0.1292192635E-01       4    7    1         0.6767547156E+00      0.1815083332E+01
          0                 2           2             4    7     1      -0.1256272486E-02       4    7    1        -0.6763883101E-01      0.1814488873E+00
          0                 3           1             4    7     1       0.8548300629E-04       4    7    1         0.4731136242E-02      0.1269564068E-01

    ------------------------------------------------
       NWT REQUIRED            3 OUTER ITERATIONS 
       AND A TOTAL OF          5 INNER ITERATIONS.
    ------------------------------------------------

 NO OUTPUT CONTROL FOR STRESS PERIOD   27   TIME STEP   19
 
 SOLVING FOR HEAD 
                                                   Max.-Head-Change                         Max.-Flux-Residual
  Residual-Control   Outer-Iter.   Inner-Iter.     Column Row Layer    Maximum-Head-Change  Column Row Layer    Maximum-Flux-Residual          L2-NORM 
          0                 1           2             4    7     1       0.1282022937E-01       4    7    1         0.6714070133E+00      0.1803636523E+01
          0                 2           2             4    7     1      -0.1246385440E-02       4    7    1        -0.6710434692E-01      0.1803047338E+00
          0                 3           1             4    7     1       0.8481024169E-04       4    7    1         0.4693750544E-02      0.1261560022E-01

    ------------------------------------------------
       NWT REQUIRED            3 OUTER ITERATIONS 
       AND A TOTAL OF          5 INNER ITERATIONS.
    ------------------------------------------------

 NO OUTPUT CONTROL FOR STRESS PERIOD   27   TIME STEP   20
 
 SOLVING FOR HEAD 
                                                   Max.-Head-Change                         Max.-Flux-Residual
  Residual-Control   Outer-Iter.   Inner-Iter.     Column Row Layer    Maximum-Head-Change  Column Row Layer    Maximum-Flux-Residual          L2-NORM 
          0                 1           2             4    7     1       0.1271967741E-01       4    7    1         0.6661194821E+00      0.1792312313E+01
          0                 2           2             4    7     1      -0.1236609715E-02       4    7    1        -0.6657587674E-01      0.1791728212E+00
          0                 3           1             4    7     1       0.8414505229E-04       4    7    1         0.4656785527E-02      0.1253643847E-01

    ------------------------------------------------
       NWT REQUIRED            3 OUTER ITERATIONS 
       AND A TOTAL OF          5 INNER ITERATIONS.
    ------------------------------------------------

 NO OUTPUT CONTROL FOR STRESS PERIOD   27   TIME STEP   21
 
 SOLVING FOR HEAD 
                                                   Max.-Head-Change                         Max.-Flux-Residual
  Residual-Control   Outer-Iter.   Inner-Iter.     Column Row Layer    Maximum-Head-Change  Column Row Layer    Maximum-Flux-Residual          L2-NORM 
          0                 1           2             4    7     1       0.1262024947E-01       4    7    1         0.6608913179E+00      0.1781111609E+01
          0                 2           2             4    7     1      -0.1226943267E-02       4    7    1        -0.6605334014E-01      0.1780532405E+00
          0                 3           1             4    7     1       0.8348729881E-04       4    7    1         0.4620235562E-02      0.1245809143E-01

    ------------------------------------------------
       NWT REQUIRED            3 OUTER ITERATIONS 
       AND A TOTAL OF          5 INNER ITERATIONS.
    ------------------------------------------------

 NO OUTPUT CONTROL FOR STRESS PERIOD   27   TIME STEP   22
 
 SOLVING FOR HEAD 
                                                   Max.-Head-Change                         Max.-Flux-Residual
  Residual-Control   Outer-Iter.   Inner-Iter.     Column Row Layer    Maximum-Head-Change  Column Row Layer    Maximum-Flux-Residual          L2-NORM 
          0                 1           2             4    7     1       0.1252206129E-01       4    7    1         0.6557287731E+00      0.1770026772E+01
          0                 2           2             4    7     1      -0.1217397352E-02       4    7    1        -0.6553736206E-01      0.1769452349E+00
          0                 3           1             4    7     1       0.8283774700E-04       4    7    1         0.4584144328E-02      0.1238056836E-01

    ------------------------------------------------
       NWT REQUIRED            3 OUTER ITERATIONS 
       AND A TOTAL OF          5 INNER ITERATIONS.
    ------------------------------------------------

 NO OUTPUT CONTROL FOR STRESS PERIOD   27   TIME STEP   23
 
 SOLVING FOR HEAD 
                                                   Max.-Head-Change                         Max.-Flux-Residual
  Residual-Control   Outer-Iter.   Inner-Iter.     Column Row Layer    Maximum-Head-Change  Column Row Layer    Maximum-Flux-Residual          L2-NORM 
          0                 1           2             4    7     1       0.1242509267E-01       4    7    1         0.6506305080E+00      0.1759071662E+01
          0                 2           2             4    7     1      -0.1207970004E-02       4    7    1        -0.6502780852E-01      0.1758502022E+00
          0                 3           1             4    7     1       0.8219626279E-04       4    7    1         0.4548502480E-02      0.1230369063E-01

    ------------------------------------------------
       NWT REQUIRED            3 OUTER ITERATIONS 
       AND A TOTAL OF          5 INNER ITERATIONS.
    ------------------------------------------------

 NO OUTPUT CONTROL FOR STRESS PERIOD   27   TIME STEP   24
 
 SOLVING FOR HEAD 
                                                   Max.-Head-Change                         Max.-Flux-Residual
  Residual-Control   Outer-Iter.   Inner-Iter.     Column Row Layer    Maximum-Head-Change  Column Row Layer    Maximum-Flux-Residual          L2-NORM 
          0                 1           2             4    7     1       0.1232918349E-01       4    7    1         0.6455881337E+00      0.1748228099E+01
          0                 2           2             4    7     1      -0.1198645655E-02       4    7    1        -0.6452384114E-01      0.1747663515E+00
          0                 3           1             4    7     1       0.8156178755E-04       4    7    1         0.4513251368E-02      0.1222815623E-01

    ------------------------------------------------
       NWT REQUIRED            3 OUTER ITERATIONS 
       AND A TOTAL OF          5 INNER ITERATIONS.
    ------------------------------------------------

 NO OUTPUT CONTROL FOR STRESS PERIOD   27   TIME STEP   25
 
 SOLVING FOR HEAD 
                                                   Max.-Head-Change                         Max.-Flux-Residual
  Residual-Control   Outer-Iter.   Inner-Iter.     Column Row Layer    Maximum-Head-Change  Column Row Layer    Maximum-Flux-Residual          L2-NORM 
          0                 1           2             4    7     1       0.1223445010E-01       4    7    1         0.6406080306E+00      0.1737498641E+01
          0                 2           2             4    7     1      -0.1189435618E-02       4    7    1        -0.6402609760E-01      0.1736938601E+00
          0                 3           1             4    7     1       0.8093509010E-04       4    7    1         0.4478435594E-02      0.1215312710E-01

    ------------------------------------------------
       NWT REQUIRED            3 OUTER ITERATIONS 
       AND A TOTAL OF          5 INNER ITERATIONS.
    ------------------------------------------------

 NO OUTPUT CONTROL FOR STRESS PERIOD   27   TIME STEP   26
 
 SOLVING FOR HEAD 
                                                   Max.-Head-Change                         Max.-Flux-Residual
  Residual-Control   Outer-Iter.   Inner-Iter.     Column Row Layer    Maximum-Head-Change  Column Row Layer    Maximum-Flux-Residual          L2-NORM 
          0                 1           2             4    7     1       0.1214073477E-01       4    7    1         0.6356815482E+00      0.1726880165E+01
          0                 2           2             4    7     1      -0.1180324558E-02       4    7    1        -0.6353371331E-01      0.1726324905E+00
          0                 3           1             4    7     1       0.8031512813E-04       4    7    1         0.4443994696E-02      0.1207887384E-01

    ------------------------------------------------
       NWT REQUIRED            3 OUTER ITERATIONS 
       AND A TOTAL OF          5 INNER ITERATIONS.
    ------------------------------------------------

 NO OUTPUT CONTROL FOR STRESS PERIOD   27   TIME STEP   27
 
 SOLVING FOR HEAD 
                                                   Max.-Head-Change                         Max.-Flux-Residual
  Residual-Control   Outer-Iter.   Inner-Iter.     Column Row Layer    Maximum-Head-Change  Column Row Layer    Maximum-Flux-Residual          L2-NORM 
          0                 1           2             4    7     1       0.1204815782E-01       4    7    1         0.6308151922E+00      0.1716380526E+01
          0                 2           2             4    7     1      -0.1171324172E-02       4    7    1        -0.6304733847E-01      0.1715829882E+00
          0                 3           1             4    7     1       0.7970269652E-04       4    7    1         0.4409974128E-02      0.1200545170E-01

    ------------------------------------------------
       NWT REQUIRED            3 OUTER ITERATIONS 
       AND A TOTAL OF          5 INNER ITERATIONS.
    ------------------------------------------------

 NO OUTPUT CONTROL FOR STRESS PERIOD   27   TIME STEP   28
 
 SOLVING FOR HEAD 
                                                   Max.-Head-Change                         Max.-Flux-Residual
  Residual-Control   Outer-Iter.   Inner-Iter.     Column Row Layer    Maximum-Head-Change  Column Row Layer    Maximum-Flux-Residual          L2-NORM 
          0                 1           2             4    7     1       0.1195656369E-01       4    7    1         0.6260005171E+00      0.1705986546E+01
          0                 2           2             4    7     1      -0.1162419338E-02       4    7    1        -0.6256612900E-01      0.1705440728E+00
          0                 3           1             4    7     1       0.7909676703E-04       4    7    1         0.4376314886E-02      0.1193278601E-01

    ------------------------------------------------
       NWT REQUIRED            3 OUTER ITERATIONS 
       AND A TOTAL OF          5 INNER ITERATIONS.
    ------------------------------------------------

 NO OUTPUT CONTROL FOR STRESS PERIOD   27   TIME STEP   29
 
 SOLVING FOR HEAD 
                                                   Max.-Head-Change                         Max.-Flux-Residual
  Residual-Control   Outer-Iter.   Inner-Iter.     Column Row Layer    Maximum-Head-Change  Column Row Layer    Maximum-Flux-Residual          L2-NORM 
          0                 1           2             4    7     1       0.1186620890E-01       4    7    1         0.6212514846E+00      0.1695705287E+01
          0                 2           2             4    7     1      -0.1153634993E-02       4    7    1        -0.6209148033E-01      0.1695163925E+00
          0                 3           1             4    7     1       0.7849903590E-04       4    7    1         0.4343114507E-02      0.1186089439E-01

    ------------------------------------------------
       NWT REQUIRED            3 OUTER ITERATIONS 
       AND A TOTAL OF          5 INNER ITERATIONS.
    ------------------------------------------------

 NO OUTPUT CONTROL FOR STRESS PERIOD   27   TIME STEP   30



 STREAM LISTING     PERIOD     27   STEP       30

 LAYER ROW COL. STREAM  RCH.  FLOW INTO     FLOW TO   FLOW OUT OF   OVRLND.     DIRECT     STREAM       STREAM     STREAM     STREAM   STREAMBED  STREAMBED
                SEG.NO.  NO.  STRM. RCH.    AQUIFER    STRM. RCH.    RUNOFF     PRECIP       ET          HEAD       DEPTH      WIDTH   CONDCTNC.   GRADIENT

   1    1    1     1     1    1.9000E+01  2.1427E-01   1.8786E+01  0.000E+00  0.000E+00  0.000E+00  1.09413E+03  1.082E+00  1.166E+01  5.249E-02  1.361E+00
   1    2    2     1     2    1.8786E+01  3.3054E-01   1.8455E+01  0.000E+00  0.000E+00  0.000E+00  1.08914E+03  1.077E+00  1.158E+01  8.107E-02  1.359E+00
   1    3    3     1     3    1.8455E+01  2.8064E-01   1.8175E+01  0.000E+00  0.000E+00  0.000E+00  1.08349E+03  1.072E+00  1.149E+01  6.892E-02  1.357E+00
   1    3    4     1     4    1.8175E+01  2.5740E-01   1.7917E+01  0.000E+00  0.000E+00  0.000E+00  1.07848E+03  1.068E+00  1.140E+01  6.328E-02  1.356E+00
   1    4    5     2     1    1.5917E+01  3.0542E-01   1.5612E+01  0.000E+00  0.000E+00  0.000E+00  1.07285E+03  9.157E-01  1.200E+01  7.800E-02  1.305E+00
   1    5    6     2     2    1.5612E+01  2.3438E-01   1.5377E+01  0.000E+00  0.000E+00  0.000E+00  1.06742E+03  9.063E-01  1.200E+01  6.000E-02  1.302E+00
   1    6    6     2     3    1.5377E+01  2.3388E-01   1.5143E+01  0.000E+00  0.000E+00  0.000E+00  1.06269E+03  8.980E-01  1.200E+01  6.000E-02  1.299E+00
   1    7    6     2     4    1.5143E+01  2.3338E-01   1.4910E+01  0.000E+00  0.000E+00  0.000E+00  1.05797E+03  8.897E-01  1.200E+01  6.000E-02  1.297E+00
   1    8    6     2     5    1.4910E+01  2.3289E-01   1.4677E+01  0.000E+00  0.000E+00  0.000E+00  1.05324E+03  8.814E-01  1.200E+01  6.000E-02  1.294E+00
   1    3    5     3     1    2.0000E+00  2.8252E-01   1.7175E+00  0.000E+00  0.000E+00  0.000E+00  1.07555E+03  1.909E+00  9.636E+00  7.227E-02  1.955E+00
   1    3    6     3     2    1.7175E+00  2.4905E-01   1.4684E+00  0.000E+00  0.000E+00  0.000E+00  1.07264E+03  1.727E+00  8.909E+00  6.682E-02  1.864E+00
   1    3    7     3     3    1.4684E+00  1.9718E-01   1.2712E+00  0.000E+00  0.000E+00  0.000E+00  1.06987E+03  1.555E+00  8.218E+00  5.547E-02  1.777E+00
   1    4    8     3     4    1.2712E+00  2.2567E-01   1.0456E+00  0.000E+00  0.000E+00  0.000E+00  1.06682E+03  1.364E+00  7.455E+00  6.709E-02  1.682E+00
   1    5    8     3     5    1.0456E+00  1.5790E-01   8.8768E-01  0.000E+00  0.000E+00  0.000E+00  1.06362E+03  1.164E+00  6.655E+00  4.991E-02  1.582E+00
   1    6    8     3     6    8.8768E-01  5.5980E-02   8.3170E-01  0.000E+00  0.000E+00  0.000E+00  1.06158E+03  1.036E+00  6.145E+00  1.844E-02  1.518E+00
   1    5   10     4     1    1.0000E+01  9.0919E-02   9.9091E+00  0.000E+00  0.000E+00  0.000E+00  1.07836E+03  6.368E-01  1.000E+01  2.500E-02  1.212E+00
   1    5    9     4     2    9.9091E+00  1.8158E-01   9.7275E+00  0.000E+00  0.000E+00  0.000E+00  1.07154E+03  6.315E-01  1.000E+01  5.000E-02  1.211E+00
   1    6    8     4     3    9.7275E+00  1.2689E-01   9.6006E+00  0.000E+00  0.000E+00  0.000E+00  1.06381E+03  6.256E-01  1.000E+01  3.500E-02  1.209E+00
   1    6    8     5     1    1.0432E+01  2.2686E-01   1.0205E+01  0.000E+00  0.000E+00  0.000E+00  1.05868E+03  6.790E-01  1.542E+01  6.166E-02  1.226E+00
   1    7    7     5     2    1.0205E+01  2.7894E-01   9.9265E+00  0.000E+00  0.000E+00  0.000E+00  1.05417E+03  6.732E-01  1.519E+01  7.594E-02  1.224E+00
   1    8    7     5     3    9.9265E+00  1.9221E-01   9.7343E+00  0.000E+00  0.000E+00  0.000E+00  1.04992E+03  6.676E-01  1.497E+01  5.241E-02  1.223E+00
   1    8    6     5     4    9.7343E+00  1.3577E-01   9.5985E+00  0.000E+00  0.000E+00  0.000E+00  1.04691E+03  6.637E-01  1.482E+01  3.706E-02  1.221E+00
   1    9    6     6     1    2.4276E+01  2.5176E-01   2.4024E+01  0.000E+00  0.000E+00  0.000E+00  1.04392E+03  1.196E+00  1.200E+01  6.000E-02  1.399E+00
   1   10    7     6     2    2.4024E+01  2.5131E-01   2.3773E+01  0.000E+00  0.000E+00  0.000E+00  1.03937E+03  1.188E+00  1.200E+01  6.000E-02  1.396E+00
   1   11    7     6     3    2.3773E+01  2.5086E-01   2.3522E+01  0.000E+00  0.000E+00  0.000E+00  1.03482E+03  1.181E+00  1.200E+01  6.000E-02  1.394E+00
   1   12    7     6     4    2.3522E+01  2.5041E-01   2.3271E+01  0.000E+00  0.000E+00  0.000E+00  1.03026E+03  1.173E+00  1.200E+01  6.000E-02  1.391E+00
   1   13    7     6     5    2.3271E+01  4.2453E-03   2.3267E+01  0.000E+00  0.000E+00  0.000E+00  1.02708E+03  1.170E+00  1.200E+01  2.400E-02  5.896E-02
   1   14    9     7     1    1.5000E+02  1.3404E+00   1.4866E+02  0.000E+00  0.000E+00  0.000E+00  1.03987E+03  2.288E+00  5.529E+01  5.593E-01  7.989E-01
   1   13    8     7     2    1.4866E+02  1.8730E+00   1.4679E+02  0.000E+00  0.000E+00  0.000E+00  1.03478E+03  2.279E+00  5.526E+01  6.148E-01  1.016E+00
   1   13    7     7     3    1.4679E+02  1.5566E+00   1.4523E+02  0.000E+00  0.000E+00  0.000E+00  1.02969E+03  2.270E+00  5.522E+01  5.584E-01  9.292E-01
   1   13    6     8     1    1.6850E+02  1.0070E+00   1.6749E+02  0.000E+00  0.000E+00  0.000E+00  1.02481E+03  2.939E+00  4.262E+01  4.343E-01  7.729E-01
   1   13    5     8     2    1.6749E+02  2.6359E-01   1.6723E+02  0.000E+00  0.000E+00  0.000E+00  1.01856E+03  2.935E+00  4.256E+01  4.337E-01  2.026E-01
   1   13    4     8     3    1.6723E+02 -2.1251E+00   1.6935E+02  0.000E+00  0.000E+00  0.000E+00  1.01232E+03  2.941E+00  4.264E+01  4.346E+00 -1.630E-01
   1   13    3     8     4    1.6935E+02 -3.5075E+00   1.7286E+02  0.000E+00  0.000E+00  0.000E+00  1.00608E+03  2.959E+00  4.291E+01  4.373E+00 -2.674E-01
   1   13    2     8     5    1.7286E+02 -2.5498E+00   1.7541E+02  0.000E+00  0.000E+00  0.000E+00  9.99854E+02  2.979E+00  4.319E+01  4.402E+00 -1.931E-01
   1   13    1     8     6    1.7541E+02 -1.9783E+00   1.7739E+02  0.000E+00  0.000E+00  0.000E+00  9.94868E+02  2.993E+00  4.340E+01  2.654E+00 -2.485E-01





UNSATURATED ZONE PACKAGE VOLUMETRIC BUDGET FOR  TIME STEP    30 STRESS PERIOD   27
  ------------------------------------------------------------------------------



     CUMULATIVE VOLUMES      L**3       RATES FOR THIS TIME STEP      L**3/T
     ------------------                 ------------------------

           IN:                                      IN:
           ---                                      ---
        INFILTRATION =   928109882.0555          INFILTRATION =           0.8475

          OUT:                                     OUT:
          ----                                     ----
              UZF ET =   851156597.7937                UZF ET =           0.7500
        UZF RECHARGE =    75854918.1598          UZF RECHARGE =           0.0002

            IN - OUT =     1098366.1020              IN - OUT =       9.7346E-02

          STORAGE:                                 STORAGE:
          --------                                 --------
      STORAGE CHANGE =     1098370.0971        STORAGE CHANGE =       9.7346E-02

 PERCENT DISCREPANCY IS DIFFERENCE BETWEEN IN-OUT MINUS CHANGE IN STORAGE
 DIVIDED BY THE AVERAGE OF IN AND OUT TIMES 100

 PERCENT DISCREPANCY =           0.00     PERCENT DISCREPANCY =           0.00






1
  VOLUMETRIC BUDGET FOR AGRICULTURAL FIELDS AT  END OF TIME STEP   30, STRESS PERIOD  27
  ------------------------------------------------------------------------------

     CUMULATIVE VOLUMES      L**3       RATES FOR THIS TIME STEP      L**3/T
     ------------------                 ------------------------

           IN:                                      IN:
           ---                                      ---
               AG WELLS  =   870083328.0000                 AG WELLS  =           0.0000
      DIVERSION SEGMENTS =           0.0000        DIVERSION SEGMENTS =           0.0000
           GW IRRIGATION =           0.0000             GW IRRIGATION =           0.0000
           SW IRRIGATION =           0.0000             SW IRRIGATION =           0.0000
        SYSTEM LOSSES GW =           0.0000          SYSTEM LOSSES GW =           0.0000
        SYSTEM LOSSES SW =           0.0000          SYSTEM LOSSES SW =           0.0000

                TOTAL IN =   870083328.0000                  TOTAL IN =           0.0000

          OUT:                                     OUT:
          ----                                     ----
               AG WELLS  =           0.0000                 AG WELLS  =           0.0000
      DIVERSION SEGMENTS =           0.0000        DIVERSION SEGMENTS =           0.0000
           GW IRRIGATION =   870083328.0000             GW IRRIGATION =           0.0000
           SW IRRIGATION =           0.0000             SW IRRIGATION =           0.0000
        SYSTEM LOSSES GW =           0.0000          SYSTEM LOSSES GW =           0.0000
        SYSTEM LOSSES SW =           0.0000          SYSTEM LOSSES SW =           0.0000

               TOTAL OUT =   870083328.0000                 TOTAL OUT =           0.0000

                IN - OUT =           0.0000                  IN - OUT =           0.0000

     PERCENT DISCREPANCY =           0.00         PERCENT DISCREPANCY =           0.00



1
  VOLUMETRIC BUDGET FOR ENTIRE MODEL AT END OF TIME STEP   30, STRESS PERIOD  27
  ------------------------------------------------------------------------------

     CUMULATIVE VOLUMES      L**3       RATES FOR THIS TIME STEP      L**3/T
     ------------------                 ------------------------

           IN:                                      IN:
           ---                                      ---
             STORAGE     =  1176330624.0000               STORAGE     =           5.0347
       CONSTANT HEAD     =           0.0000         CONSTANT HEAD     =           0.0000
     HEAD DEP BOUNDS     =    19548296.0000       HEAD DEP BOUNDS     =           0.2861
      STREAM LEAKAGE     =   846563072.0000        STREAM LEAKAGE     =          11.7735
        UZF RECHARGE     =    75854960.0000          UZF RECHARGE     =       1.5427E-04
               GW ET     =           0.0000                 GW ET     =           0.0000
     SURFACE LEAKAGE     =           0.0000       SURFACE LEAKAGE     =           0.0000
           AG WELLS      =           0.0000             AG WELLS      =           0.0000

                TOTAL IN =  2118296960.0000                  TOTAL IN =          17.0944

          OUT:                                     OUT:
          ----                                     ----
             STORAGE     =   501290048.0000               STORAGE     =           6.6448
       CONSTANT HEAD     =           0.0000         CONSTANT HEAD     =           0.0000
     HEAD DEP BOUNDS     =    20108246.0000       HEAD DEP BOUNDS     =           0.2893
      STREAM LEAKAGE     =   709204096.0000        STREAM LEAKAGE     =          10.1607
        UZF RECHARGE     =           0.0000          UZF RECHARGE     =           0.0000
               GW ET     =    17607600.0000                 GW ET     =           0.0000
     SURFACE LEAKAGE     =           0.0000       SURFACE LEAKAGE     =           0.0000
           AG WELLS      =   870083328.0000             AG WELLS      =           0.0000

               TOTAL OUT =  2118293248.0000                 TOTAL OUT =          17.0949

                IN - OUT =        3712.0000                  IN - OUT =      -4.5395E-04

     PERCENT DISCREPANCY =           0.00         PERCENT DISCREPANCY =          -0.00






         TIME SUMMARY AT END OF TIME STEP   30 IN STRESS PERIOD   27
                    SECONDS     MINUTES      HOURS       DAYS        YEARS
                    -----------------------------------------------------------
   TIME STEP LENGTH  87667.      1461.1      24.352      1.0147     2.77799E-03
 STRESS PERIOD TIME 2.63000E+06  43833.      730.56      30.440     8.33397E-02
         TOTAL TIME 6.84668E+07 1.14111E+06  19019.      792.44      2.1696    
1
1
                            STRESS PERIOD NO.   28, LENGTH =   2630000.    
                            -----------------------------------------------

                              NUMBER OF TIME STEPS =    30

                               MULTIPLIER FOR DELT =     1.000

                            INITIAL TIME STEP SIZE =   87666.66    

 REUSING NON-PARAMETER GHB CELLS FROM LAST STRESS PERIOD

      2 GHB CELLS

 REUSING STREAM SEGMENT DATA FROM LAST STRESS PERIOD



            AREAL INFILTRATION RATE
 READING ON UNIT   19 WITH FORMAT: (FREE)              

            1           2           3           4           5           6           7           8           9          10
 ........................................................................................................................
   1   1.0000E-10  2.0000E-10   0.000       0.000       0.000       0.000       0.000       0.000       0.000       0.000    
   2   2.0000E-10  1.0000E-10  2.0000E-10   0.000       0.000      8.0000E-10  8.0000E-10  5.0000E-10   0.000       0.000    
   3    0.000      5.0000E-10  1.0000E-10  1.0000E-10  8.0000E-10  8.0000E-10  5.0000E-10  5.0000E-10   0.000       0.000    
   4   8.0000E-10  5.0000E-10  1.0000E-10  1.0000E-10  1.0000E-10  1.0000E-10  1.0000E-10  1.0000E-10  2.0000E-10   0.000    
   5   8.0000E-10  5.0000E-10  1.0000E-10  1.0000E-10  1.0000E-10  1.0000E-10  1.0000E-10  1.0000E-10  1.0000E-10  1.0000E-10
   6   8.0000E-10  5.0000E-10  5.0000E-10  2.0000E-10  2.0000E-10  1.0000E-10  1.0000E-10  1.0000E-10  1.0000E-10  5.0000E-10
   7   8.0000E-10  5.0000E-10  5.0000E-10  2.0000E-10  2.0000E-10  1.0000E-10  1.0000E-10  2.0000E-10  2.0000E-10   0.000    
   8    0.000      5.0000E-10  5.0000E-10  2.0000E-10  2.0000E-10  1.0000E-10  1.0000E-10  2.0000E-10  5.0000E-10   0.000    
   9    0.000      5.0000E-10  5.0000E-10  2.0000E-10  2.0000E-10  1.0000E-10  1.0000E-10  2.0000E-10  5.0000E-10   0.000    
  10    0.000      5.0000E-10  5.0000E-10  2.0000E-10  2.0000E-10  1.0000E-10  1.0000E-10  2.0000E-10  5.0000E-10  8.0000E-10
  11    0.000      1.0000E-10  1.0000E-10  1.0000E-10  1.0000E-10  1.0000E-10  1.0000E-10  2.0000E-10  5.0000E-10   0.000    
  12   1.0000E-10  1.0000E-10  1.0000E-10  1.0000E-10  1.0000E-10  1.0000E-10  1.0000E-10  1.0000E-10  2.0000E-10   0.000    
  13   1.0000E-10  1.0000E-10  2.0000E-10  2.0000E-10  2.0000E-10  2.0000E-10  2.0000E-10  1.0000E-10  1.0000E-10   0.000    
  14    0.000      2.0000E-10  5.0000E-10  5.0000E-10  5.0000E-10  5.0000E-10  5.0000E-10  2.0000E-10  1.0000E-10   0.000    
  15    0.000       0.000      8.0000E-10  8.0000E-10  8.0000E-10  8.0000E-10   0.000       0.000       0.000       0.000    

                  ET RATE =  5.000000E-10

 USING ET EXTINCTION DEPTH FROM PREVIOUS STRESS PERIOD. CURRENT PERIOD IS:      28

 USING EXTINCTION WATER CONTENT FROM PREVIOUS STRESS PERIOD. CURRENT PERIOD IS:      28

 USING AIR ENTRY PRESSURE FROM PREVIOUS STRESS PERIOD. CURRENT PERIOD IS:      28

 USING ROOT PRESSURE HEAD FROM PREVIOUS STRESS PERIOD. CURRENT PERIOD IS:      28

 USING ROOT ACTIVITY FROM PREVIOUS STRESS PERIOD. CURRENT PERIOD IS:      28

 PROCESSING AG STRESS PERIOD DATA

 READING AG STRESS PERIOD DATA

 READING IRRIGATION WELL

 END PROCESSING AG STRESS PERIOD DATA OPTIONS
 
 SOLVING FOR HEAD 
                                                   Max.-Head-Change                         Max.-Flux-Residual
  Residual-Control   Outer-Iter.   Inner-Iter.     Column Row Layer    Maximum-Head-Change  Column Row Layer    Maximum-Flux-Residual          L2-NORM 
          0                 1           2             4    7     1       0.1177665843E-01       4    7    1         0.6165446815E+00      0.1685527186E+01
          0                 2           2             4    7     1      -0.1144928846E-02       4    7    1        -0.6162105237E-01      0.1684990302E+00
          0                 3           1             4    7     1       0.7790662625E-04       4    7    1         0.4310209417E-02      0.1178972458E-01

    ------------------------------------------------
       NWT REQUIRED            3 OUTER ITERATIONS 
       AND A TOTAL OF          5 INNER ITERATIONS.
    ------------------------------------------------

 NO OUTPUT CONTROL FOR STRESS PERIOD   28   TIME STEP    1
 
 SOLVING FOR HEAD 
                                                   Max.-Head-Change                         Max.-Flux-Residual
  Residual-Control   Outer-Iter.   Inner-Iter.     Column Row Layer    Maximum-Head-Change  Column Row Layer    Maximum-Flux-Residual          L2-NORM 
          0                 1           2             4    7     1       0.1168831091E-01       4    7    1         0.6119016095E+00      0.1675457900E+01
          0                 2           2             4    7     1      -0.1136339651E-02       4    7    1        -0.6115699416E-01      0.1674925445E+00
          0                 3           1             4    7     1       0.7732217450E-04       4    7    1         0.4277749852E-02      0.1171931403E-01

    ------------------------------------------------
       NWT REQUIRED            3 OUTER ITERATIONS 
       AND A TOTAL OF          5 INNER ITERATIONS.
    ------------------------------------------------

 NO OUTPUT CONTROL FOR STRESS PERIOD   28   TIME STEP    2
 
 SOLVING FOR HEAD 
                                                   Max.-Head-Change                         Max.-Flux-Residual
  Residual-Control   Outer-Iter.   Inner-Iter.     Column Row Layer    Maximum-Head-Change  Column Row Layer    Maximum-Flux-Residual          L2-NORM 
          0                 1           2             4    7     1       0.1160087166E-01       4    7    1         0.6073062226E+00      0.1665494925E+01
          0                 2           2             4    7     1      -0.1127838757E-02       4    7    1        -0.6069770191E-01      0.1664966813E+00
          0                 3           1             4    7     1       0.7674373071E-04       4    7    1         0.4245623632E-02      0.1164963753E-01

    ------------------------------------------------
       NWT REQUIRED            3 OUTER ITERATIONS 
       AND A TOTAL OF          5 INNER ITERATIONS.
    ------------------------------------------------

 NO OUTPUT CONTROL FOR STRESS PERIOD   28   TIME STEP    3
 
 SOLVING FOR HEAD 
                                                   Max.-Head-Change                         Max.-Flux-Residual
  Residual-Control   Outer-Iter.   Inner-Iter.     Column Row Layer    Maximum-Head-Change  Column Row Layer    Maximum-Flux-Residual          L2-NORM 
          0                 1           2             4    7     1       0.1151446066E-01       4    7    1         0.6027652707E+00      0.1655632074E+01
          0                 2           2             4    7     1      -0.1119437833E-02       4    7    1        -0.6024385030E-01      0.1655108177E+00
          0                 3           1             4    7     1       0.7617208985E-04       4    7    1         0.4213877990E-02      0.1158067242E-01

    ------------------------------------------------
       NWT REQUIRED            3 OUTER ITERATIONS 
       AND A TOTAL OF          5 INNER ITERATIONS.
    ------------------------------------------------

 NO OUTPUT CONTROL FOR STRESS PERIOD   28   TIME STEP    4
 
 SOLVING FOR HEAD 
                                                   Max.-Head-Change                         Max.-Flux-Residual
  Residual-Control   Outer-Iter.   Inner-Iter.     Column Row Layer    Maximum-Head-Change  Column Row Layer    Maximum-Flux-Residual          L2-NORM 
          0                 1           2             4    7     1       0.1142892731E-01       4    7    1         0.5982702885E+00      0.1645867929E+01
          0                 2           2             4    7     1      -0.1111122233E-02       4    7    1        -0.5979459322E-01      0.1645348793E+00
          0                 3           1             4    7     1       0.7560625447E-04       4    7    1         0.4182453703E-02      0.1151242366E-01

    ------------------------------------------------
       NWT REQUIRED            3 OUTER ITERATIONS 
       AND A TOTAL OF          5 INNER ITERATIONS.
    ------------------------------------------------

 NO OUTPUT CONTROL FOR STRESS PERIOD   28   TIME STEP    5
 
 SOLVING FOR HEAD 
                                                   Max.-Head-Change                         Max.-Flux-Residual
  Residual-Control   Outer-Iter.   Inner-Iter.     Column Row Layer    Maximum-Head-Change  Column Row Layer    Maximum-Flux-Residual          L2-NORM 
          0                 1           2             4    7     1       0.1134452863E-01       4    7    1         0.5938354977E+00      0.1636215691E+01
          0                 2           2             4    7     1      -0.1102916948E-02       4    7    1        -0.5935135212E-01      0.1635700325E+00
          0                 3           1             4    7     1       0.7504792577E-04       4    7    1         0.4151450238E-02      0.1144488258E-01

    ------------------------------------------------
       NWT REQUIRED            3 OUTER ITERATIONS 
       AND A TOTAL OF          5 INNER ITERATIONS.
    ------------------------------------------------

 NO OUTPUT CONTROL FOR STRESS PERIOD   28   TIME STEP    6
 
 SOLVING FOR HEAD 
                                                   Max.-Head-Change                         Max.-Flux-Residual
  Residual-Control   Outer-Iter.   Inner-Iter.     Column Row Layer    Maximum-Head-Change  Column Row Layer    Maximum-Flux-Residual          L2-NORM 
          0                 1           2             4    7     1       0.1126096812E-01       4    7    1         0.5894448506E+00      0.1626652042E+01
          0                 2           2             4    7     1      -0.1094793152E-02       4    7    1        -0.5891252307E-01      0.1626140903E+00
          0                 3           1             4    7     1       0.7449514198E-04       4    7    1         0.4120755389E-02      0.1137802854E-01

    ------------------------------------------------
       NWT REQUIRED            3 OUTER ITERATIONS 
       AND A TOTAL OF          5 INNER ITERATIONS.
    ------------------------------------------------

 NO OUTPUT CONTROL FOR STRESS PERIOD   28   TIME STEP    7
 
 SOLVING FOR HEAD 
                                                   Max.-Head-Change                         Max.-Flux-Residual
  Residual-Control   Outer-Iter.   Inner-Iter.     Column Row Layer    Maximum-Head-Change  Column Row Layer    Maximum-Flux-Residual          L2-NORM 
          0                 1           2             4    7     1       0.1117837249E-01       4    7    1         0.5851050049E+00      0.1617193144E+01
          0                 2           2             4    7     1      -0.1086763161E-02       4    7    1        -0.5847877142E-01      0.1616686339E+00
          0                 3           1             4    7     1       0.7394874137E-04       4    7    1         0.4090415682E-02      0.1131189283E-01

    ------------------------------------------------
       NWT REQUIRED            3 OUTER ITERATIONS 
       AND A TOTAL OF          5 INNER ITERATIONS.
    ------------------------------------------------

 NO OUTPUT CONTROL FOR STRESS PERIOD   28   TIME STEP    8
 
 SOLVING FOR HEAD 
                                                   Max.-Head-Change                         Max.-Flux-Residual
  Residual-Control   Outer-Iter.   Inner-Iter.     Column Row Layer    Maximum-Head-Change  Column Row Layer    Maximum-Flux-Residual          L2-NORM 
          0                 1           2             4    7     1       0.1109658761E-01       4    7    1         0.5808078425E+00      0.1607823687E+01
          0                 2           2             4    7     1      -0.1078811992E-02       4    7    1        -0.5804928585E-01      0.1607320570E+00
          0                 3           1             4    7     1       0.7340770391E-04       4    7    1         0.4060374362E-02      0.1124636331E-01

    ------------------------------------------------
       NWT REQUIRED            3 OUTER ITERATIONS 
       AND A TOTAL OF          5 INNER ITERATIONS.
    ------------------------------------------------

 NO OUTPUT CONTROL FOR STRESS PERIOD   28   TIME STEP    9
 
 SOLVING FOR HEAD 
                                                   Max.-Head-Change                         Max.-Flux-Residual
  Residual-Control   Outer-Iter.   Inner-Iter.     Column Row Layer    Maximum-Head-Change  Column Row Layer    Maximum-Flux-Residual          L2-NORM 
          0                 1           2             4    7     1       0.1101574024E-01       4    7    1         0.5765600600E+00      0.1598550342E+01
          0                 2           2             4    7     1      -0.1070951968E-02       4    7    1        -0.5762473566E-01      0.1598052842E+00
          0                 3           1             4    7     1       0.7287286847E-04       4    7    1         0.4030678280E-02      0.1118152249E-01

    ------------------------------------------------
       NWT REQUIRED            3 OUTER ITERATIONS 
       AND A TOTAL OF          5 INNER ITERATIONS.
    ------------------------------------------------

 NO OUTPUT CONTROL FOR STRESS PERIOD   28   TIME STEP   10
 
 SOLVING FOR HEAD 
                                                   Max.-Head-Change                         Max.-Flux-Residual
  Residual-Control   Outer-Iter.   Inner-Iter.     Column Row Layer    Maximum-Head-Change  Column Row Layer    Maximum-Flux-Residual          L2-NORM 
          0                 1           2             4    7     1       0.1093594744E-01       4    7    1         0.5723682302E+00      0.1589375621E+01
          0                 2           2             4    7     1      -0.1063194472E-02       4    7    1        -0.5720577781E-01      0.1588880611E+00
          0                 3           1             4    7     1       0.7234500968E-04       4    7    1         0.4001373365E-02      0.1111733778E-01

    ------------------------------------------------
       NWT REQUIRED            3 OUTER ITERATIONS 
       AND A TOTAL OF          5 INNER ITERATIONS.
    ------------------------------------------------

 NO OUTPUT CONTROL FOR STRESS PERIOD   28   TIME STEP   11
 
 SOLVING FOR HEAD 
                                                   Max.-Head-Change                         Max.-Flux-Residual
  Residual-Control   Outer-Iter.   Inner-Iter.     Column Row Layer    Maximum-Head-Change  Column Row Layer    Maximum-Flux-Residual          L2-NORM 
          0                 1           2             4    7     1       0.1085678127E-01       4    7    1         0.5682090445E+00      0.1580286700E+01
          0                 2           2             4    7     1      -0.1055497896E-02       4    7    1        -0.5679008260E-01      0.1579795750E+00
          0                 3           1             4    7     1       0.7182129599E-04       4    7    1         0.3972296651E-02      0.1105380409E-01

    ------------------------------------------------
       NWT REQUIRED            3 OUTER ITERATIONS 
       AND A TOTAL OF          5 INNER ITERATIONS.
    ------------------------------------------------

 NO OUTPUT CONTROL FOR STRESS PERIOD   28   TIME STEP   12
 
 SOLVING FOR HEAD 
                                                   Max.-Head-Change                         Max.-Flux-Residual
  Residual-Control   Outer-Iter.   Inner-Iter.     Column Row Layer    Maximum-Head-Change  Column Row Layer    Maximum-Flux-Residual          L2-NORM 
          0                 1           2             4    7     1       0.1077864212E-01       4    7    1         0.5641043823E+00      0.1571298687E+01
          0                 2           2             4    7     1      -0.1047901169E-02       4    7    1        -0.5637983688E-01      0.1570811612E+00
          0                 3           1             4    7     1       0.7130437635E-04       4    7    1         0.3943601114E-02      0.1099095917E-01

    ------------------------------------------------
       NWT REQUIRED            3 OUTER ITERATIONS 
       AND A TOTAL OF          5 INNER ITERATIONS.
    ------------------------------------------------

 NO OUTPUT CONTROL FOR STRESS PERIOD   28   TIME STEP   13
 
 SOLVING FOR HEAD 
                                                   Max.-Head-Change                         Max.-Flux-Residual
  Residual-Control   Outer-Iter.   Inner-Iter.     Column Row Layer    Maximum-Head-Change  Column Row Layer    Maximum-Flux-Residual          L2-NORM 
          0                 1           2             4    7     1       0.1070137413E-01       4    7    1         0.5600456250E+00      0.1562391843E+01
          0                 2           2             4    7     1      -0.1040389137E-02       4    7    1        -0.5597417920E-01      0.1561908683E+00
          0                 3           1             4    7     1       0.7079321995E-04       4    7    1         0.3915226503E-02      0.1092865714E-01

    ------------------------------------------------
       NWT REQUIRED            3 OUTER ITERATIONS 
       AND A TOTAL OF          5 INNER ITERATIONS.
    ------------------------------------------------

 NO OUTPUT CONTROL FOR STRESS PERIOD   28   TIME STEP   14
 
 SOLVING FOR HEAD 
                                                   Max.-Head-Change                         Max.-Flux-Residual
  Residual-Control   Outer-Iter.   Inner-Iter.     Column Row Layer    Maximum-Head-Change  Column Row Layer    Maximum-Flux-Residual          L2-NORM 
          0                 1           2             4    7     1       0.1062483052E-01       4    7    1         0.5560246906E+00      0.1553573826E+01
          0                 2           2             4    7     1      -0.1032947530E-02       4    7    1        -0.5557230182E-01      0.1553094423E+00
          0                 3           1             4    7     1       0.7028685607E-04       4    7    1         0.3887116323E-02      0.1086700939E-01

    ------------------------------------------------
       NWT REQUIRED            3 OUTER ITERATIONS 
       AND A TOTAL OF          5 INNER ITERATIONS.
    ------------------------------------------------

 NO OUTPUT CONTROL FOR STRESS PERIOD   28   TIME STEP   15
 
 SOLVING FOR HEAD 
                                                   Max.-Head-Change                         Max.-Flux-Residual
  Residual-Control   Outer-Iter.   Inner-Iter.     Column Row Layer    Maximum-Head-Change  Column Row Layer    Maximum-Flux-Residual          L2-NORM 
          0                 1           2             4    7     1       0.1054926955E-01       4    7    1         0.5520560043E+00      0.1544851124E+01
          0                 2           2             4    7     1      -0.1025601455E-02       4    7    1        -0.5517564649E-01      0.1544375577E+00
          0                 3           1             4    7     1       0.6978699182E-04       4    7    1         0.3859371397E-02      0.1080601621E-01

    ------------------------------------------------
       NWT REQUIRED            3 OUTER ITERATIONS 
       AND A TOTAL OF          5 INNER ITERATIONS.
    ------------------------------------------------

 NO OUTPUT CONTROL FOR STRESS PERIOD   28   TIME STEP   16
 
 SOLVING FOR HEAD 
                                                   Max.-Head-Change                         Max.-Flux-Residual
  Residual-Control   Outer-Iter.   Inner-Iter.     Column Row Layer    Maximum-Head-Change  Column Row Layer    Maximum-Flux-Residual          L2-NORM 
          0                 1           2             4    7     1       0.1047440534E-01       4    7    1         0.5481235754E+00      0.1536214924E+01
          0                 2           2             4    7     1      -0.1018323121E-02       4    7    1        -0.5478261493E-01      0.1535743108E+00
          0                 3           1             4    7     1       0.6929173797E-04       4    7    1         0.3831879965E-02      0.1074562330E-01

    ------------------------------------------------
       NWT REQUIRED            3 OUTER ITERATIONS 
       AND A TOTAL OF          5 INNER ITERATIONS.
    ------------------------------------------------

 NO OUTPUT CONTROL FOR STRESS PERIOD   28   TIME STEP   17
 
 SOLVING FOR HEAD 
                                                   Max.-Head-Change                         Max.-Flux-Residual
  Residual-Control   Outer-Iter.   Inner-Iter.     Column Row Layer    Maximum-Head-Change  Column Row Layer    Maximum-Flux-Residual          L2-NORM 
          0                 1           2             4    7     1       0.1040035792E-01       4    7    1         0.5442346180E+00      0.1527652654E+01
          0                 2           2             4    7     1      -0.1011124195E-02       4    7    1        -0.5439392824E-01      0.1527184466E+00
          0                 3           1             4    7     1       0.6880188678E-04       4    7    1         0.3804692421E-02      0.1068573272E-01

    ------------------------------------------------
       NWT REQUIRED            3 OUTER ITERATIONS 
       AND A TOTAL OF          5 INNER ITERATIONS.
    ------------------------------------------------

 NO OUTPUT CONTROL FOR STRESS PERIOD   28   TIME STEP   18
 
 SOLVING FOR HEAD 
                                                   Max.-Head-Change                         Max.-Flux-Residual
  Residual-Control   Outer-Iter.   Inner-Iter.     Column Row Layer    Maximum-Head-Change  Column Row Layer    Maximum-Flux-Residual          L2-NORM 
          0                 1           2             4    7     1       0.1032711743E-01       4    7    1         0.5403880097E+00      0.1519180598E+01
          0                 2           2             4    7     1      -0.1004003721E-02       4    7    1        -0.5400947421E-01      0.1518716209E+00
          0                 3           1             4    7     1       0.6831737388E-04       4    7    1         0.3777800942E-02      0.1062651413E-01

    ------------------------------------------------
       NWT REQUIRED            3 OUTER ITERATIONS 
       AND A TOTAL OF          5 INNER ITERATIONS.
    ------------------------------------------------

 NO OUTPUT CONTROL FOR STRESS PERIOD   28   TIME STEP   19
 
 SOLVING FOR HEAD 
                                                   Max.-Head-Change                         Max.-Flux-Residual
  Residual-Control   Outer-Iter.   Inner-Iter.     Column Row Layer    Maximum-Head-Change  Column Row Layer    Maximum-Flux-Residual          L2-NORM 
          0                 1           2             4    7     1       0.1025467159E-01       4    7    1         0.5365832396E+00      0.1510796574E+01
          0                 2           2             4    7     1      -0.9969605018E-03       4    7    1        -0.5362920178E-01      0.1510335583E+00
          0                 3           1             4    7     1       0.6783811784E-04       4    7    1         0.3751201966E-02      0.1056788091E-01

    ------------------------------------------------
       NWT REQUIRED            3 OUTER ITERATIONS 
       AND A TOTAL OF          5 INNER ITERATIONS.
    ------------------------------------------------

 NO OUTPUT CONTROL FOR STRESS PERIOD   28   TIME STEP   20
 
 SOLVING FOR HEAD 
                                                   Max.-Head-Change                         Max.-Flux-Residual
  Residual-Control   Outer-Iter.   Inner-Iter.     Column Row Layer    Maximum-Head-Change  Column Row Layer    Maximum-Flux-Residual          L2-NORM 
          0                 1           2             4    7     1       0.1018287015E-01       4    7    1         0.5328123241E+00      0.1502494241E+01
          0                 2           2             4    7     1      -0.9899799324E-03       4    7    1        -0.5325231300E-01      0.1502037108E+00
          0                 3           1             4    7     1       0.6736312523E-04       4    7    1         0.3724839676E-02      0.1050982256E-01

    ------------------------------------------------
       NWT REQUIRED            3 OUTER ITERATIONS 
       AND A TOTAL OF          5 INNER ITERATIONS.
    ------------------------------------------------

 NO OUTPUT CONTROL FOR STRESS PERIOD   28   TIME STEP   21
 
 SOLVING FOR HEAD 
                                                   Max.-Head-Change                         Max.-Flux-Residual
  Residual-Control   Outer-Iter.   Inner-Iter.     Column Row Layer    Maximum-Head-Change  Column Row Layer    Maximum-Flux-Residual          L2-NORM 
          0                 1           2             4    7     1       0.1011197930E-01       4    7    1         0.5290895124E+00      0.1494269963E+01
          0                 2           2             4    7     1      -0.9830878916E-03       4    7    1        -0.5288023204E-01      0.1493816104E+00
          0                 3           1             4    7     1       0.6689415620E-04       4    7    1         0.3698813667E-02      0.1045231546E-01

    ------------------------------------------------
       NWT REQUIRED            3 OUTER ITERATIONS 
       AND A TOTAL OF          5 INNER ITERATIONS.
    ------------------------------------------------

 NO OUTPUT CONTROL FOR STRESS PERIOD   28   TIME STEP   22
 
 SOLVING FOR HEAD 
                                                   Max.-Head-Change                         Max.-Flux-Residual
  Residual-Control   Outer-Iter.   Inner-Iter.     Column Row Layer    Maximum-Head-Change  Column Row Layer    Maximum-Flux-Residual          L2-NORM 
          0                 1           2             4    7     1       0.1004184147E-01       4    7    1         0.5254065672E+00      0.1486125795E+01
          0                 2           2             4    7     1      -0.9762690599E-03       4    7    1        -0.5251213563E-01      0.1485675600E+00
          0                 3           1             4    7     1       0.6643016878E-04       4    7    1         0.3673066361E-02      0.1039534675E-01

    ------------------------------------------------
       NWT REQUIRED            3 OUTER ITERATIONS 
       AND A TOTAL OF          5 INNER ITERATIONS.
    ------------------------------------------------

 NO OUTPUT CONTROL FOR STRESS PERIOD   28   TIME STEP   23
 
 SOLVING FOR HEAD 
                                                   Max.-Head-Change                         Max.-Flux-Residual
  Residual-Control   Outer-Iter.   Inner-Iter.     Column Row Layer    Maximum-Head-Change  Column Row Layer    Maximum-Flux-Residual          L2-NORM 
          0                 1           2             4    7     1       0.9972313316E-02       4    7    1         0.5217553178E+00      0.1478063532E+01
          0                 2           2             4    7     1      -0.9695095020E-03       4    7    1        -0.5214720712E-01      0.1477616760E+00
          0                 3           1             4    7     1       0.6597021475E-04       4    7    1         0.3647540662E-02      0.1033897799E-01

    ------------------------------------------------
       NWT REQUIRED            3 OUTER ITERATIONS 
       AND A TOTAL OF          5 INNER ITERATIONS.
    ------------------------------------------------

 NO OUTPUT CONTROL FOR STRESS PERIOD   28   TIME STEP   24
 
 SOLVING FOR HEAD 
                                                   Max.-Head-Change                         Max.-Flux-Residual
  Residual-Control   Outer-Iter.   Inner-Iter.     Column Row Layer    Maximum-Head-Change  Column Row Layer    Maximum-Flux-Residual          L2-NORM 
          0                 1           2             4    7     1       0.9903656667E-02       4    7    1         0.5181503728E+00      0.1470079615E+01
          0                 2           2             4    7     1      -0.9628346713E-03       4    7    1        -0.5178690657E-01      0.1469635961E+00
          0                 3           1             4    7     1       0.6551602537E-04       4    7    1         0.3622338632E-02      0.1028319645E-01

    ------------------------------------------------
       NWT REQUIRED            3 OUTER ITERATIONS 
       AND A TOTAL OF          5 INNER ITERATIONS.
    ------------------------------------------------

 NO OUTPUT CONTROL FOR STRESS PERIOD   28   TIME STEP   25
 
 SOLVING FOR HEAD 
                                                   Max.-Head-Change                         Max.-Flux-Residual
  Residual-Control   Outer-Iter.   Inner-Iter.     Column Row Layer    Maximum-Head-Change  Column Row Layer    Maximum-Flux-Residual          L2-NORM 
          0                 1           2             4    7     1       0.9835717382E-02       4    7    1         0.5145832669E+00      0.1462167767E+01
          0                 2           2             4    7     1      -0.9562295843E-03       4    7    1        -0.5143038795E-01      0.1461727877E+00
          0                 3           1             4    7     1       0.6506658200E-04       4    7    1         0.3597401164E-02      0.1022781519E-01

    ------------------------------------------------
       NWT REQUIRED            3 OUTER ITERATIONS 
       AND A TOTAL OF          5 INNER ITERATIONS.
    ------------------------------------------------

 NO OUTPUT CONTROL FOR STRESS PERIOD   28   TIME STEP   26
 
 SOLVING FOR HEAD 
                                                   Max.-Head-Change                         Max.-Flux-Residual
  Residual-Control   Outer-Iter.   Inner-Iter.     Column Row Layer    Maximum-Head-Change  Column Row Layer    Maximum-Flux-Residual          L2-NORM 
          0                 1           2             4    7     1       0.9768350404E-02       4    7    1         0.5110460079E+00      0.1454334986E+01
          0                 2           2             4    7     1      -0.9496801373E-03       4    7    1        -0.5107685240E-01      0.1453898533E+00
          0                 3           1             4    7     1       0.6462092492E-04       4    7    1         0.3572672366E-02      0.1017310770E-01

    ------------------------------------------------
       NWT REQUIRED            3 OUTER ITERATIONS 
       AND A TOTAL OF          5 INNER ITERATIONS.
    ------------------------------------------------

 NO OUTPUT CONTROL FOR STRESS PERIOD   28   TIME STEP   27
 
 SOLVING FOR HEAD 
                                                   Max.-Head-Change                         Max.-Flux-Residual
  Residual-Control   Outer-Iter.   Inner-Iter.     Column Row Layer    Maximum-Head-Change  Column Row Layer    Maximum-Flux-Residual          L2-NORM 
          0                 1           2             4    7     1       0.9701820544E-02       4    7    1         0.5075531167E+00      0.1446577695E+01
          0                 2           2             4    7     1      -0.9432120757E-03       4    7    1        -0.5072775129E-01      0.1446144591E+00
          0                 3           1             4    7     1       0.6418080589E-04       4    7    1         0.3548253736E-02      0.1011880841E-01

    ------------------------------------------------
       NWT REQUIRED            3 OUTER ITERATIONS 
       AND A TOTAL OF          5 INNER ITERATIONS.
    ------------------------------------------------

 NO OUTPUT CONTROL FOR STRESS PERIOD   28   TIME STEP   28
 
 SOLVING FOR HEAD 
                                                   Max.-Head-Change                         Max.-Flux-Residual
  Residual-Control   Outer-Iter.   Inner-Iter.     Column Row Layer    Maximum-Head-Change  Column Row Layer    Maximum-Flux-Residual          L2-NORM 
          0                 1           2             4    7     1       0.9635842957E-02       4    7    1         0.5040889337E+00      0.1438892676E+01
          0                 2           2             4    7     1      -0.9367977066E-03       4    7    1        -0.5038151945E-01      0.1438462519E+00
          0                 3           1             4    7     1       0.6374433990E-04       4    7    1         0.3524035814E-02      0.1006504394E-01

    ------------------------------------------------
       NWT REQUIRED            3 OUTER ITERATIONS 
       AND A TOTAL OF          5 INNER ITERATIONS.
    ------------------------------------------------

 NO OUTPUT CONTROL FOR STRESS PERIOD   28   TIME STEP   29
 
 SOLVING FOR HEAD 
                                                   Max.-Head-Change                         Max.-Flux-Residual
  Residual-Control   Outer-Iter.   Inner-Iter.     Column Row Layer    Maximum-Head-Change  Column Row Layer    Maximum-Flux-Residual          L2-NORM 
          0                 1           2             4    7     1       0.9570679858E-02       4    7    1         0.5006680804E+00      0.1431284156E+01
          0                 2           2             4    7     1      -0.9304625227E-03       4    7    1        -0.5003961830E-01      0.1430857245E+00
          0                 3           1             4    7     1       0.6331326273E-04       4    7    1         0.3500120811E-02      0.1001186544E-01

    ------------------------------------------------
       NWT REQUIRED            3 OUTER ITERATIONS 
       AND A TOTAL OF          5 INNER ITERATIONS.
    ------------------------------------------------

 NO OUTPUT CONTROL FOR STRESS PERIOD   28   TIME STEP   30



 STREAM LISTING     PERIOD     28   STEP       30

 LAYER ROW COL. STREAM  RCH.  FLOW INTO     FLOW TO   FLOW OUT OF   OVRLND.     DIRECT     STREAM       STREAM     STREAM     STREAM   STREAMBED  STREAMBED
                SEG.NO.  NO.  STRM. RCH.    AQUIFER    STRM. RCH.    RUNOFF     PRECIP       ET          HEAD       DEPTH      WIDTH   CONDCTNC.   GRADIENT

   1    1    1     1     1    1.9000E+01  2.1427E-01   1.8786E+01  0.000E+00  0.000E+00  0.000E+00  1.09413E+03  1.082E+00  1.166E+01  5.249E-02  1.361E+00
   1    2    2     1     2    1.8786E+01  3.3054E-01   1.8455E+01  0.000E+00  0.000E+00  0.000E+00  1.08914E+03  1.077E+00  1.158E+01  8.107E-02  1.359E+00
   1    3    3     1     3    1.8455E+01  2.8064E-01   1.8175E+01  0.000E+00  0.000E+00  0.000E+00  1.08349E+03  1.072E+00  1.149E+01  6.892E-02  1.357E+00
   1    3    4     1     4    1.8175E+01  2.5740E-01   1.7917E+01  0.000E+00  0.000E+00  0.000E+00  1.07848E+03  1.068E+00  1.140E+01  6.328E-02  1.356E+00
   1    4    5     2     1    1.5917E+01  3.0542E-01   1.5612E+01  0.000E+00  0.000E+00  0.000E+00  1.07285E+03  9.157E-01  1.200E+01  7.800E-02  1.305E+00
   1    5    6     2     2    1.5612E+01  2.3438E-01   1.5377E+01  0.000E+00  0.000E+00  0.000E+00  1.06742E+03  9.063E-01  1.200E+01  6.000E-02  1.302E+00
   1    6    6     2     3    1.5377E+01  2.3388E-01   1.5143E+01  0.000E+00  0.000E+00  0.000E+00  1.06269E+03  8.980E-01  1.200E+01  6.000E-02  1.299E+00
   1    7    6     2     4    1.5143E+01  2.3338E-01   1.4910E+01  0.000E+00  0.000E+00  0.000E+00  1.05797E+03  8.897E-01  1.200E+01  6.000E-02  1.297E+00
   1    8    6     2     5    1.4910E+01  2.3289E-01   1.4677E+01  0.000E+00  0.000E+00  0.000E+00  1.05324E+03  8.814E-01  1.200E+01  6.000E-02  1.294E+00
   1    3    5     3     1    2.0000E+00  2.8252E-01   1.7175E+00  0.000E+00  0.000E+00  0.000E+00  1.07555E+03  1.909E+00  9.636E+00  7.227E-02  1.955E+00
   1    3    6     3     2    1.7175E+00  2.4905E-01   1.4684E+00  0.000E+00  0.000E+00  0.000E+00  1.07264E+03  1.727E+00  8.909E+00  6.682E-02  1.864E+00
   1    3    7     3     3    1.4684E+00  1.9718E-01   1.2712E+00  0.000E+00  0.000E+00  0.000E+00  1.06987E+03  1.555E+00  8.218E+00  5.547E-02  1.777E+00
   1    4    8     3     4    1.2712E+00  2.2567E-01   1.0456E+00  0.000E+00  0.000E+00  0.000E+00  1.06682E+03  1.364E+00  7.455E+00  6.709E-02  1.682E+00
   1    5    8     3     5    1.0456E+00  1.5790E-01   8.8768E-01  0.000E+00  0.000E+00  0.000E+00  1.06362E+03  1.164E+00  6.655E+00  4.991E-02  1.582E+00
   1    6    8     3     6    8.8768E-01  5.5980E-02   8.3170E-01  0.000E+00  0.000E+00  0.000E+00  1.06158E+03  1.036E+00  6.145E+00  1.844E-02  1.518E+00
   1    5   10     4     1    1.0000E+01  9.0919E-02   9.9091E+00  0.000E+00  0.000E+00  0.000E+00  1.07836E+03  6.368E-01  1.000E+01  2.500E-02  1.212E+00
   1    5    9     4     2    9.9091E+00  1.8158E-01   9.7275E+00  0.000E+00  0.000E+00  0.000E+00  1.07154E+03  6.315E-01  1.000E+01  5.000E-02  1.211E+00
   1    6    8     4     3    9.7275E+00  1.2689E-01   9.6006E+00  0.000E+00  0.000E+00  0.000E+00  1.06381E+03  6.256E-01  1.000E+01  3.500E-02  1.209E+00
   1    6    8     5     1    1.0432E+01  2.2686E-01   1.0205E+01  0.000E+00  0.000E+00  0.000E+00  1.05868E+03  6.790E-01  1.542E+01  6.166E-02  1.226E+00
   1    7    7     5     2    1.0205E+01  2.7894E-01   9.9265E+00  0.000E+00  0.000E+00  0.000E+00  1.05417E+03  6.732E-01  1.519E+01  7.594E-02  1.224E+00
   1    8    7     5     3    9.9265E+00  1.9221E-01   9.7343E+00  0.000E+00  0.000E+00  0.000E+00  1.04992E+03  6.676E-01  1.497E+01  5.241E-02  1.223E+00
   1    8    6     5     4    9.7343E+00  1.3577E-01   9.5985E+00  0.000E+00  0.000E+00  0.000E+00  1.04691E+03  6.637E-01  1.482E+01  3.706E-02  1.221E+00
   1    9    6     6     1    2.4276E+01  2.5176E-01   2.4024E+01  0.000E+00  0.000E+00  0.000E+00  1.04392E+03  1.196E+00  1.200E+01  6.000E-02  1.399E+00
   1   10    7     6     2    2.4024E+01  2.5131E-01   2.3773E+01  0.000E+00  0.000E+00  0.000E+00  1.03937E+03  1.188E+00  1.200E+01  6.000E-02  1.396E+00
   1   11    7     6     3    2.3773E+01  2.5086E-01   2.3522E+01  0.000E+00  0.000E+00  0.000E+00  1.03482E+03  1.181E+00  1.200E+01  6.000E-02  1.394E+00
   1   12    7     6     4    2.3522E+01  2.5041E-01   2.3271E+01  0.000E+00  0.000E+00  0.000E+00  1.03026E+03  1.173E+00  1.200E+01  6.000E-02  1.391E+00
   1   13    7     6     5    2.3271E+01  4.8753E-03   2.3267E+01  0.000E+00  0.000E+00  0.000E+00  1.02708E+03  1.170E+00  1.200E+01  2.400E-02  6.771E-02
   1   14    9     7     1    1.5000E+02  1.3420E+00   1.4866E+02  0.000E+00  0.000E+00  0.000E+00  1.03987E+03  2.288E+00  5.529E+01  5.593E-01  7.998E-01
   1   13    8     7     2    1.4866E+02  1.8810E+00   1.4678E+02  0.000E+00  0.000E+00  0.000E+00  1.03478E+03  2.279E+00  5.526E+01  6.148E-01  1.020E+00
   1   13    7     7     3    1.4678E+02  1.5712E+00   1.4521E+02  0.000E+00  0.000E+00  0.000E+00  1.02969E+03  2.270E+00  5.521E+01  5.584E-01  9.379E-01
   1   13    6     8     1    1.6847E+02  1.0199E+00   1.6745E+02  0.000E+00  0.000E+00  0.000E+00  1.02481E+03  2.939E+00  4.261E+01  4.342E-01  7.829E-01
   1   13    5     8     2    1.6745E+02  2.7372E-01   1.6718E+02  0.000E+00  0.000E+00  0.000E+00  1.01856E+03  2.935E+00  4.255E+01  4.336E-01  2.104E-01
   1   13    4     8     3    1.6718E+02 -2.0958E+00   1.6927E+02  0.000E+00  0.000E+00  0.000E+00  1.01232E+03  2.941E+00  4.264E+01  4.345E+00 -1.608E-01
   1   13    3     8     4    1.6927E+02 -3.4898E+00   1.7276E+02  0.000E+00  0.000E+00  0.000E+00  1.00608E+03  2.959E+00  4.290E+01  4.372E+00 -2.661E-01
   1   13    2     8     5    1.7276E+02 -2.5443E+00   1.7531E+02  0.000E+00  0.000E+00  0.000E+00  9.99853E+02  2.978E+00  4.319E+01  4.401E+00 -1.927E-01
   1   13    1     8     6    1.7531E+02 -1.9762E+00   1.7728E+02  0.000E+00  0.000E+00  0.000E+00  9.94868E+02  2.993E+00  4.339E+01  2.653E+00 -2.483E-01





UNSATURATED ZONE PACKAGE VOLUMETRIC BUDGET FOR  TIME STEP    30 STRESS PERIOD   28
  ------------------------------------------------------------------------------



     CUMULATIVE VOLUMES      L**3       RATES FOR THIS TIME STEP      L**3/T
     ------------------                 ------------------------

           IN:                                      IN:
           ---                                      ---
        INFILTRATION =   930338806.9283          INFILTRATION =           0.8475

          OUT:                                     OUT:
          ----                                     ----
              UZF ET =   853129097.6737                UZF ET =           0.7500
        UZF RECHARGE =    75855283.4546          UZF RECHARGE =           0.0001

            IN - OUT =     1354425.8000              IN - OUT =       9.7374E-02

          STORAGE:                                 STORAGE:
          --------                                 --------
      STORAGE CHANGE =     1354429.8141        STORAGE CHANGE =       9.7374E-02

 PERCENT DISCREPANCY IS DIFFERENCE BETWEEN IN-OUT MINUS CHANGE IN STORAGE
 DIVIDED BY THE AVERAGE OF IN AND OUT TIMES 100

 PERCENT DISCREPANCY =           0.00     PERCENT DISCREPANCY =           0.00






1
  VOLUMETRIC BUDGET FOR AGRICULTURAL FIELDS AT  END OF TIME STEP   30, STRESS PERIOD  28
  ------------------------------------------------------------------------------

     CUMULATIVE VOLUMES      L**3       RATES FOR THIS TIME STEP      L**3/T
     ------------------                 ------------------------

           IN:                                      IN:
           ---                                      ---
               AG WELLS  =   870083328.0000                 AG WELLS  =           0.0000
      DIVERSION SEGMENTS =           0.0000        DIVERSION SEGMENTS =           0.0000
           GW IRRIGATION =           0.0000             GW IRRIGATION =           0.0000
           SW IRRIGATION =           0.0000             SW IRRIGATION =           0.0000
        SYSTEM LOSSES GW =           0.0000          SYSTEM LOSSES GW =           0.0000
        SYSTEM LOSSES SW =           0.0000          SYSTEM LOSSES SW =           0.0000

                TOTAL IN =   870083328.0000                  TOTAL IN =           0.0000

          OUT:                                     OUT:
          ----                                     ----
               AG WELLS  =           0.0000                 AG WELLS  =           0.0000
      DIVERSION SEGMENTS =           0.0000        DIVERSION SEGMENTS =           0.0000
           GW IRRIGATION =   870083328.0000             GW IRRIGATION =           0.0000
           SW IRRIGATION =           0.0000             SW IRRIGATION =           0.0000
        SYSTEM LOSSES GW =           0.0000          SYSTEM LOSSES GW =           0.0000
        SYSTEM LOSSES SW =           0.0000          SYSTEM LOSSES SW =           0.0000

               TOTAL OUT =   870083328.0000                 TOTAL OUT =           0.0000

                IN - OUT =           0.0000                  IN - OUT =           0.0000

     PERCENT DISCREPANCY =           0.00         PERCENT DISCREPANCY =           0.00



1
  VOLUMETRIC BUDGET FOR ENTIRE MODEL AT END OF TIME STEP   30, STRESS PERIOD  28
  ------------------------------------------------------------------------------

     CUMULATIVE VOLUMES      L**3       RATES FOR THIS TIME STEP      L**3/T
     ------------------                 ------------------------

           IN:                                      IN:
           ---                                      ---
             STORAGE     =  1188410496.0000               STORAGE     =           4.2149
       CONSTANT HEAD     =           0.0000         CONSTANT HEAD     =           0.0000
     HEAD DEP BOUNDS     =    20300814.0000       HEAD DEP BOUNDS     =           0.2862
      STREAM LEAKAGE     =   877594112.0000        STREAM LEAKAGE     =          11.8214
        UZF RECHARGE     =    75855336.0000          UZF RECHARGE     =       1.2595E-04
               GW ET     =           0.0000                 GW ET     =           0.0000
     SURFACE LEAKAGE     =           0.0000       SURFACE LEAKAGE     =           0.0000
           AG WELLS      =           0.0000             AG WELLS      =           0.0000

                TOTAL IN =  2162160640.0000                  TOTAL IN =          16.3227

          OUT:                                     OUT:
          ----                                     ----
             STORAGE     =   517748768.0000               STORAGE     =           5.9278
       CONSTANT HEAD     =           0.0000         CONSTANT HEAD     =           0.0000
     HEAD DEP BOUNDS     =    20869104.0000       HEAD DEP BOUNDS     =           0.2893
      STREAM LEAKAGE     =   735849280.0000        STREAM LEAKAGE     =          10.1061
        UZF RECHARGE     =           0.0000          UZF RECHARGE     =           0.0000
               GW ET     =    17607600.0000                 GW ET     =           0.0000
     SURFACE LEAKAGE     =           0.0000       SURFACE LEAKAGE     =           0.0000
           AG WELLS      =   870083328.0000             AG WELLS      =           0.0000

               TOTAL OUT =  2162158080.0000                 TOTAL OUT =          16.3232

                IN - OUT =        2560.0000                  IN - OUT =      -4.8447E-04

     PERCENT DISCREPANCY =           0.00         PERCENT DISCREPANCY =          -0.00






         TIME SUMMARY AT END OF TIME STEP   30 IN STRESS PERIOD   28
                    SECONDS     MINUTES      HOURS       DAYS        YEARS
                    -----------------------------------------------------------
   TIME STEP LENGTH  87667.      1461.1      24.352      1.0147     2.77799E-03
 STRESS PERIOD TIME 2.63000E+06  43833.      730.56      30.440     8.33397E-02
         TOTAL TIME 7.10967E+07 1.18494E+06  19749.      822.88      2.2529    
1
1
                            STRESS PERIOD NO.   29, LENGTH =   2630000.    
                            -----------------------------------------------

                              NUMBER OF TIME STEPS =    30

                               MULTIPLIER FOR DELT =     1.000

                            INITIAL TIME STEP SIZE =   87666.66    

 REUSING NON-PARAMETER GHB CELLS FROM LAST STRESS PERIOD

      2 GHB CELLS

 REUSING STREAM SEGMENT DATA FROM LAST STRESS PERIOD



            AREAL INFILTRATION RATE
 READING ON UNIT   19 WITH FORMAT: (FREE)              

            1           2           3           4           5           6           7           8           9          10
 ........................................................................................................................
   1   1.0000E-10  2.0000E-10   0.000       0.000       0.000       0.000       0.000       0.000       0.000       0.000    
   2   2.0000E-10  1.0000E-10  2.0000E-10   0.000       0.000      8.0000E-10  8.0000E-10  5.0000E-10   0.000       0.000    
   3    0.000      5.0000E-10  1.0000E-10  1.0000E-10  8.0000E-10  8.0000E-10  5.0000E-10  5.0000E-10   0.000       0.000    
   4   8.0000E-10  5.0000E-10  1.0000E-10  1.0000E-10  1.0000E-10  1.0000E-10  1.0000E-10  1.0000E-10  2.0000E-10   0.000    
   5   8.0000E-10  5.0000E-10  1.0000E-10  1.0000E-10  1.0000E-10  1.0000E-10  1.0000E-10  1.0000E-10  1.0000E-10  1.0000E-10
   6   8.0000E-10  5.0000E-10  5.0000E-10  2.0000E-10  2.0000E-10  1.0000E-10  1.0000E-10  1.0000E-10  1.0000E-10  5.0000E-10
   7   8.0000E-10  5.0000E-10  5.0000E-10  2.0000E-10  2.0000E-10  1.0000E-10  1.0000E-10  2.0000E-10  2.0000E-10   0.000    
   8    0.000      5.0000E-10  5.0000E-10  2.0000E-10  2.0000E-10  1.0000E-10  1.0000E-10  2.0000E-10  5.0000E-10   0.000    
   9    0.000      5.0000E-10  5.0000E-10  2.0000E-10  2.0000E-10  1.0000E-10  1.0000E-10  2.0000E-10  5.0000E-10   0.000    
  10    0.000      5.0000E-10  5.0000E-10  2.0000E-10  2.0000E-10  1.0000E-10  1.0000E-10  2.0000E-10  5.0000E-10  8.0000E-10
  11    0.000      1.0000E-10  1.0000E-10  1.0000E-10  1.0000E-10  1.0000E-10  1.0000E-10  2.0000E-10  5.0000E-10   0.000    
  12   1.0000E-10  1.0000E-10  1.0000E-10  1.0000E-10  1.0000E-10  1.0000E-10  1.0000E-10  1.0000E-10  2.0000E-10   0.000    
  13   1.0000E-10  1.0000E-10  2.0000E-10  2.0000E-10  2.0000E-10  2.0000E-10  2.0000E-10  1.0000E-10  1.0000E-10   0.000    
  14    0.000      2.0000E-10  5.0000E-10  5.0000E-10  5.0000E-10  5.0000E-10  5.0000E-10  2.0000E-10  1.0000E-10   0.000    
  15    0.000       0.000      8.0000E-10  8.0000E-10  8.0000E-10  8.0000E-10   0.000       0.000       0.000       0.000    

                  ET RATE =  2.500000E-08

 USING ET EXTINCTION DEPTH FROM PREVIOUS STRESS PERIOD. CURRENT PERIOD IS:      29

 USING EXTINCTION WATER CONTENT FROM PREVIOUS STRESS PERIOD. CURRENT PERIOD IS:      29

 USING AIR ENTRY PRESSURE FROM PREVIOUS STRESS PERIOD. CURRENT PERIOD IS:      29

 USING ROOT PRESSURE HEAD FROM PREVIOUS STRESS PERIOD. CURRENT PERIOD IS:      29

 USING ROOT ACTIVITY FROM PREVIOUS STRESS PERIOD. CURRENT PERIOD IS:      29

 PROCESSING AG STRESS PERIOD DATA

 READING AG STRESS PERIOD DATA

 READING IRRIGATION WELL

 END PROCESSING AG STRESS PERIOD DATA OPTIONS
 
 SOLVING FOR HEAD 
                                                   Max.-Head-Change                         Max.-Flux-Residual
  Residual-Control   Outer-Iter.   Inner-Iter.     Column Row Layer    Maximum-Head-Change  Column Row Layer    Maximum-Flux-Residual          L2-NORM 
          0                 1           2             3    7     1       0.8376303498E-02       4    9    1         0.2782627765E+00      0.1097187796E+01
          0                 2           2             3    7     1      -0.8147861616E-03       4    9    1        -0.2782628064E-01      0.1097172303E+00
          0                 3           1             3    7     1       0.5548398428E-04       4    9    1         0.1947840468E-02      0.7680117415E-02

    ------------------------------------------------
       NWT REQUIRED            3 OUTER ITERATIONS 
       AND A TOTAL OF          5 INNER ITERATIONS.
    ------------------------------------------------

 NO OUTPUT CONTROL FOR STRESS PERIOD   29   TIME STEP    1
 
 SOLVING FOR HEAD 
                                                   Max.-Head-Change                         Max.-Flux-Residual
  Residual-Control   Outer-Iter.   Inner-Iter.     Column Row Layer    Maximum-Head-Change  Column Row Layer    Maximum-Flux-Residual          L2-NORM 
          0                 1           2             3    7     1       0.8226585361E-02       4    9    1         0.2692322522E+00      0.1067925111E+01
          0                 2           2             3    7     1      -0.8002226511E-03       4    9    1        -0.2692322820E-01      0.1067908921E+00
          0                 3           1             3    7     1       0.5449225878E-04       4    9    1         0.1884626756E-02      0.7475217724E-02

    ------------------------------------------------
       NWT REQUIRED            3 OUTER ITERATIONS 
       AND A TOTAL OF          5 INNER ITERATIONS.
    ------------------------------------------------

 NO OUTPUT CONTROL FOR STRESS PERIOD   29   TIME STEP    2
 
 SOLVING FOR HEAD 
                                                   Max.-Head-Change                         Max.-Flux-Residual
  Residual-Control   Outer-Iter.   Inner-Iter.     Column Row Layer    Maximum-Head-Change  Column Row Layer    Maximum-Flux-Residual          L2-NORM 
          0                 1           2             3    7     1       0.8079318942E-02       4    9    1         0.2605446496E+00      0.1040337176E+01
          0                 2           2             3    7     1      -0.7858976281E-03       4    9    1        -0.2605446794E-01      0.1040320722E+00
          0                 3           1             3    7     1       0.5351677356E-04       4    9    1         0.1823813521E-02      0.7282090171E-02

    ------------------------------------------------
       NWT REQUIRED            3 OUTER ITERATIONS 
       AND A TOTAL OF          5 INNER ITERATIONS.
    ------------------------------------------------

 NO OUTPUT CONTROL FOR STRESS PERIOD   29   TIME STEP    3
 
 SOLVING FOR HEAD 
                                                   Max.-Head-Change                         Max.-Flux-Residual
  Residual-Control   Outer-Iter.   Inner-Iter.     Column Row Layer    Maximum-Head-Change  Column Row Layer    Maximum-Flux-Residual          L2-NORM 
          0                 1           2             3    7     1       0.7934267731E-02       4    9    1         0.2522022602E+00      0.1014299638E+01
          0                 2           2             3    7     1      -0.7717880858E-03       4    9    1        -0.2522022899E-01      0.1014283006E+00
          0                 3           1             3    7     1       0.5255596209E-04       4    9    1         0.1765416755E-02      0.7099840525E-02

    ------------------------------------------------
       NWT REQUIRED            3 OUTER ITERATIONS 
       AND A TOTAL OF          5 INNER ITERATIONS.
    ------------------------------------------------

 NO OUTPUT CONTROL FOR STRESS PERIOD   29   TIME STEP    4
 
 SOLVING FOR HEAD 
                                                   Max.-Head-Change                         Max.-Flux-Residual
  Residual-Control   Outer-Iter.   Inner-Iter.     Column Row Layer    Maximum-Head-Change  Column Row Layer    Maximum-Flux-Residual          L2-NORM 
          0                 1           2             3    7     1       0.7791686626E-02       4    9    1         0.2441808153E+00      0.9897093068E+00
          0                 2           2             3    7     1      -0.7579188200E-03       4    9    1        -0.2441808449E-01      0.9896922186E-01
          0                 3           1             3    7     1       0.5161151349E-04       4    9    1         0.1709266621E-02      0.6927679252E-02

    ------------------------------------------------
       NWT REQUIRED            3 OUTER ITERATIONS 
       AND A TOTAL OF          5 INNER ITERATIONS.
    ------------------------------------------------

 NO OUTPUT CONTROL FOR STRESS PERIOD   29   TIME STEP    5
 
 SOLVING FOR HEAD 
                                                   Max.-Head-Change                         Max.-Flux-Residual
  Residual-Control   Outer-Iter.   Inner-Iter.     Column Row Layer    Maximum-Head-Change  Column Row Layer    Maximum-Flux-Residual          L2-NORM 
          0                 1           2             3    7     1       0.7651574998E-02       4    9    1         0.2364762813E+00      0.9664599386E+00
          0                 2           2             3    7     1      -0.7442897677E-03       4    9    1        -0.2364763108E-01      0.9664425428E-01
          0                 3           1             3    7     1       0.5068342233E-04       4    9    1         0.1655334863E-02      0.6764938425E-02

    ------------------------------------------------
       NWT REQUIRED            3 OUTER ITERATIONS 
       AND A TOTAL OF          5 INNER ITERATIONS.
    ------------------------------------------------

 NO OUTPUT CONTROL FOR STRESS PERIOD   29   TIME STEP    6
 
 SOLVING FOR HEAD 
                                                   Max.-Head-Change                         Max.-Flux-Residual
  Residual-Control   Outer-Iter.   Inner-Iter.     Column Row Layer    Maximum-Head-Change  Column Row Layer    Maximum-Flux-Residual          L2-NORM 
          0                 1           2             3    7     1       0.7513925572E-02       4    9    1         0.2290711149E+00      0.9444534288E+00
          0                 2           2             3    7     1      -0.7309002216E-03       4    9    1        -0.2290711441E-01      0.9444358262E-01
          0                 3           1             3    7     1       0.4977164092E-04       4    9    1         0.1603498666E-02      0.6610901798E-02

    ------------------------------------------------
       NWT REQUIRED            3 OUTER ITERATIONS 
       AND A TOTAL OF          5 INNER ITERATIONS.
    ------------------------------------------------

 NO OUTPUT CONTROL FOR STRESS PERIOD   29   TIME STEP    7
 
 SOLVING FOR HEAD 
                                                   Max.-Head-Change                         Max.-Flux-Residual
  Residual-Control   Outer-Iter.   Inner-Iter.     Column Row Layer    Maximum-Head-Change  Column Row Layer    Maximum-Flux-Residual          L2-NORM 
          0                 1           2             3    7     1       0.7378729117E-02       4    9    1         0.2219674668E+00      0.9236294826E+00
          0                 2           2             3    7     1      -0.7177492839E-03       4    9    1        -0.2219674958E-01      0.9236115173E-01
          0                 3           1             3    7     1       0.4887610796E-04       4    9    1         0.1553773122E-02      0.6465123554E-02

    ------------------------------------------------
       NWT REQUIRED            3 OUTER ITERATIONS 
       AND A TOTAL OF          5 INNER ITERATIONS.
    ------------------------------------------------

 NO OUTPUT CONTROL FOR STRESS PERIOD   29   TIME STEP    8
 
 SOLVING FOR HEAD 
                                                   Max.-Head-Change                         Max.-Flux-Residual
  Residual-Control   Outer-Iter.   Inner-Iter.     Column Row Layer    Maximum-Head-Change  Column Row Layer    Maximum-Flux-Residual          L2-NORM 
          0                 1           2             3    7     1       0.7245973589E-02       4    9    1         0.2151479594E+00      0.9038869871E+00
          0                 2           2             3    7     1      -0.7048357828E-03       4    9    1        -0.2151479883E-01      0.9038689517E-01
          0                 3           1             3    7     1       0.4799674439E-04       4    9    1         0.1506036532E-02      0.6326903902E-02

    ------------------------------------------------
       NWT REQUIRED            3 OUTER ITERATIONS 
       AND A TOTAL OF          5 INNER ITERATIONS.
    ------------------------------------------------

 NO OUTPUT CONTROL FOR STRESS PERIOD   29   TIME STEP    9
 
 SOLVING FOR HEAD 
                                                   Max.-Head-Change                         Max.-Flux-Residual
  Residual-Control   Outer-Iter.   Inner-Iter.     Column Row Layer    Maximum-Head-Change  Column Row Layer    Maximum-Flux-Residual          L2-NORM 
          0                 1           2             3    7     1       0.7115641368E-02       4    9    1         0.2086018511E+00      0.8851587430E+00
          0                 2           2             3    7     1      -0.6921580044E-03       4    9    1        -0.2086018798E-01      0.8851403649E-01
          0                 3           1             3    7     1       0.4713343236E-04       4    9    1         0.1460213747E-02      0.6195820429E-02

    ------------------------------------------------
       NWT REQUIRED            3 OUTER ITERATIONS 
       AND A TOTAL OF          5 INNER ITERATIONS.
    ------------------------------------------------

 NO OUTPUT CONTROL FOR STRESS PERIOD   29   TIME STEP   10
 
 SOLVING FOR HEAD 
                                                   Max.-Head-Change                         Max.-Flux-Residual
  Residual-Control   Outer-Iter.   Inner-Iter.     Column Row Layer    Maximum-Head-Change  Column Row Layer    Maximum-Flux-Residual          L2-NORM 
          0                 1           2             3    7     1       0.6987714280E-02       4    9    1         0.2023186625E+00      0.8673870026E+00
          0                 2           2             3    7     1      -0.6797141811E-03       4    9    1        -0.2023186911E-01      0.8673686679E-01
          0                 3           1             3    7     1       0.4628605223E-04       4    9    1         0.1416231433E-02      0.6071422048E-02

    ------------------------------------------------
       NWT REQUIRED            3 OUTER ITERATIONS 
       AND A TOTAL OF          5 INNER ITERATIONS.
    ------------------------------------------------

 NO OUTPUT CONTROL FOR STRESS PERIOD   29   TIME STEP   11
 
 SOLVING FOR HEAD 
                                                   Max.-Head-Change                         Max.-Flux-Residual
  Residual-Control   Outer-Iter.   Inner-Iter.     Column Row Layer    Maximum-Head-Change  Column Row Layer    Maximum-Flux-Residual          L2-NORM 
          0                 1           2             3    7     1       0.6862168774E-02       4    9    1         0.1962882834E+00      0.8504921973E+00
          0                 2           2             3    7     1      -0.6675020213E-03       4    9    1        -0.1962883121E-01      0.8504734818E-01
          0                 3           1             3    7     1       0.4545444780E-04       4    9    1         0.1374018756E-02      0.5953149356E-02

    ------------------------------------------------
       NWT REQUIRED            3 OUTER ITERATIONS 
       AND A TOTAL OF          5 INNER ITERATIONS.
    ------------------------------------------------

 NO OUTPUT CONTROL FOR STRESS PERIOD   29   TIME STEP   12
 
 SOLVING FOR HEAD 
                                                   Max.-Head-Change                         Max.-Flux-Residual
  Residual-Control   Outer-Iter.   Inner-Iter.     Column Row Layer    Maximum-Head-Change  Column Row Layer    Maximum-Flux-Residual          L2-NORM 
          0                 1           2             3    7     1       0.6738980832E-02       4    9    1         0.1905069995E+00      0.8344425543E+00
          0                 2           2             3    7     1      -0.6555191893E-03       4    9    1        -0.1905070282E-01      0.8344237310E-01
          0                 3           1             3    7     1       0.4463845977E-04       4    9    1         0.1333549745E-02      0.5840805480E-02

    ------------------------------------------------
       NWT REQUIRED            3 OUTER ITERATIONS 
       AND A TOTAL OF          5 INNER ITERATIONS.
    ------------------------------------------------

 NO OUTPUT CONTROL FOR STRESS PERIOD   29   TIME STEP   13
 
 SOLVING FOR HEAD 
                                                   Max.-Head-Change                         Max.-Flux-Residual
  Residual-Control   Outer-Iter.   Inner-Iter.     Column Row Layer    Maximum-Head-Change  Column Row Layer    Maximum-Flux-Residual          L2-NORM 
          0                 1           2             3    7     1       0.6618366973E-02       4    9    1         0.1849585640E+00      0.8191722499E+00
          0                 2           2             3    7     1      -0.6437867454E-03       4    9    1        -0.1849585926E-01      0.8191533126E-01
          0                 3           1             3    7     1       0.4383952228E-04       4    9    1         0.1294710695E-02      0.5733897673E-02

    ------------------------------------------------
       NWT REQUIRED            3 OUTER ITERATIONS 
       AND A TOTAL OF          5 INNER ITERATIONS.
    ------------------------------------------------

 NO OUTPUT CONTROL FOR STRESS PERIOD   29   TIME STEP   14
 
 SOLVING FOR HEAD 
                                                   Max.-Head-Change                         Max.-Flux-Residual
  Residual-Control   Outer-Iter.   Inner-Iter.     Column Row Layer    Maximum-Head-Change  Column Row Layer    Maximum-Flux-Residual          L2-NORM 
          0                 1           2             3    7     1       0.6499804233E-02       4    9    1         0.1796331513E+00      0.8046182280E+00
          0                 2           2             3    7     1      -0.6322538207E-03       4    9    1        -0.1796331800E-01      0.8045991209E-01
          0                 3           1             3    7     1       0.4305417209E-04       4    9    1         0.1257432762E-02      0.5632025451E-02

    ------------------------------------------------
       NWT REQUIRED            3 OUTER ITERATIONS 
       AND A TOTAL OF          5 INNER ITERATIONS.
    ------------------------------------------------

 NO OUTPUT CONTROL FOR STRESS PERIOD   29   TIME STEP   15
 
 SOLVING FOR HEAD 
                                                   Max.-Head-Change                         Max.-Flux-Residual
  Residual-Control   Outer-Iter.   Inner-Iter.     Column Row Layer    Maximum-Head-Change  Column Row Layer    Maximum-Flux-Residual          L2-NORM 
          0                 1           2             3    7     1       0.6383757469E-02       4    9    1         0.1745282671E+00      0.7907634714E+00
          0                 2           2             3    7     1      -0.6209656317E-03       4    9    1        -0.1745282958E-01      0.7907444830E-01
          0                 3           1             3    7     1       0.4228548653E-04       4    9    1         0.1221698556E-02      0.5535044335E-02

    ------------------------------------------------
       NWT REQUIRED            3 OUTER ITERATIONS 
       AND A TOTAL OF          5 INNER ITERATIONS.
    ------------------------------------------------

 NO OUTPUT CONTROL FOR STRESS PERIOD   29   TIME STEP   16
 
 SOLVING FOR HEAD 
                                                   Max.-Head-Change                         Max.-Flux-Residual
  Residual-Control   Outer-Iter.   Inner-Iter.     Column Row Layer    Maximum-Head-Change  Column Row Layer    Maximum-Flux-Residual          L2-NORM 
          0                 1           2             3    7     1       0.6269943997E-02       4    9    1         0.1696346693E+00      0.7775487650E+00
          0                 2           2             3    7     1      -0.6098946820E-03       4    9    1        -0.1696346978E-01      0.7775293425E-01
          0                 3           1             3    7     1       0.4153159483E-04       4    9    1         0.1187443358E-02      0.5442525269E-02

    ------------------------------------------------
       NWT REQUIRED            3 OUTER ITERATIONS 
       AND A TOTAL OF          5 INNER ITERATIONS.
    ------------------------------------------------

 NO OUTPUT CONTROL FOR STRESS PERIOD   29   TIME STEP   17
 
 SOLVING FOR HEAD 
                                                   Max.-Head-Change                         Max.-Flux-Residual
  Residual-Control   Outer-Iter.   Inner-Iter.     Column Row Layer    Maximum-Head-Change  Column Row Layer    Maximum-Flux-Residual          L2-NORM 
          0                 1           2             3    7     1       0.6158573379E-02       4    9    1         0.1649369873E+00      0.7649434927E+00
          0                 2           2             3    7     1      -0.5990613547E-03       4    9    1        -0.1649370162E-01      0.7649236192E-01
          0                 3           1             3    7     1       0.4079388412E-04       4    9    1         0.1154559583E-02      0.5354236864E-02

    ------------------------------------------------
       NWT REQUIRED            3 OUTER ITERATIONS 
       AND A TOTAL OF          5 INNER ITERATIONS.
    ------------------------------------------------

 NO OUTPUT CONTROL FOR STRESS PERIOD   29   TIME STEP   18
 
 SOLVING FOR HEAD 
                                                   Max.-Head-Change                         Max.-Flux-Residual
  Residual-Control   Outer-Iter.   Inner-Iter.     Column Row Layer    Maximum-Head-Change  Column Row Layer    Maximum-Flux-Residual          L2-NORM 
          0                 1           2             3    7     1       0.6049362387E-02       4    9    1         0.1604334034E+00      0.7529070190E+00
          0                 2           2             3    7     1      -0.5884381019E-03       4    9    1        -0.1604334322E-01      0.7528877848E-01
          0                 3           1             3    7     1       0.4007047901E-04       4    9    1         0.1123034481E-02      0.5270053887E-02

    ------------------------------------------------
       NWT REQUIRED            3 OUTER ITERATIONS 
       AND A TOTAL OF          5 INNER ITERATIONS.
    ------------------------------------------------

 NO OUTPUT CONTROL FOR STRESS PERIOD   29   TIME STEP   19
 
 SOLVING FOR HEAD 
                                                   Max.-Head-Change                         Max.-Flux-Residual
  Residual-Control   Outer-Iter.   Inner-Iter.     Column Row Layer    Maximum-Head-Change  Column Row Layer    Maximum-Flux-Residual          L2-NORM 
          0                 1           2             3    7     1       0.5942275186E-02       3    7    1         0.1574095075E+00      0.7414061276E+00
          0                 2           2             3    7     1      -0.5780214353E-03       3    7    1        -0.1574095409E-01      0.7413868017E-01
          0                 3           1             3    7     1       0.3936114164E-04       3    7    1         0.1101867223E-02      0.5189546474E-02

    ------------------------------------------------
       NWT REQUIRED            3 OUTER ITERATIONS 
       AND A TOTAL OF          5 INNER ITERATIONS.
    ------------------------------------------------

 NO OUTPUT CONTROL FOR STRESS PERIOD   29   TIME STEP   20
 
 SOLVING FOR HEAD 
                                                   Max.-Head-Change                         Max.-Flux-Residual
  Residual-Control   Outer-Iter.   Inner-Iter.     Column Row Layer    Maximum-Head-Change  Column Row Layer    Maximum-Flux-Residual          L2-NORM 
          0                 1           2             3    7     1       0.5837275534E-02       3    7    1         0.1546203840E+00      0.7304107534E+00
          0                 2           2             3    7     1      -0.5678078312E-03       3    7    1        -0.1546204170E-01      0.7303911552E-01
          0                 3           1             3    7     1       0.3866563250E-04       3    7    1         0.1082343353E-02      0.5112556308E-02

    ------------------------------------------------
       NWT REQUIRED            3 OUTER ITERATIONS 
       AND A TOTAL OF          5 INNER ITERATIONS.
    ------------------------------------------------

 NO OUTPUT CONTROL FOR STRESS PERIOD   29   TIME STEP   21
 
 SOLVING FOR HEAD 
                                                   Max.-Head-Change                         Max.-Flux-Residual
  Residual-Control   Outer-Iter.   Inner-Iter.     Column Row Layer    Maximum-Head-Change  Column Row Layer    Maximum-Flux-Residual          L2-NORM 
          0                 1           2             3    7     1       0.5734570615E-02       9    5    1        -0.1538954487E+00      0.7198947175E+00
          0                 2           2             3    7     1      -0.5578174423E-03       9    5    1         0.1538953223E-01      0.7198751388E-01
          0                 3           1             3    7     1       0.3798532323E-04       9    5    1        -0.1077267854E-02      0.5038941358E-02

    ------------------------------------------------
       NWT REQUIRED            3 OUTER ITERATIONS 
       AND A TOTAL OF          5 INNER ITERATIONS.
    ------------------------------------------------

 NO OUTPUT CONTROL FOR STRESS PERIOD   29   TIME STEP   22
 
 SOLVING FOR HEAD 
                                                   Max.-Head-Change                         Max.-Flux-Residual
  Residual-Control   Outer-Iter.   Inner-Iter.     Column Row Layer    Maximum-Head-Change  Column Row Layer    Maximum-Flux-Residual          L2-NORM 
          0                 1           2             3    7     1       0.5634115865E-02       9    5    1        -0.1534198173E+00      0.7098223700E+00
          0                 2           2             3    7     1      -0.5432464721E-03       9    5    1         0.1534196914E-01      0.7093002250E-01
          0                 3           1             3    7     1       0.3699308202E-04       9    5    1        -0.1073938423E-02      0.4964929414E-02

    ------------------------------------------------
       NWT REQUIRED            3 OUTER ITERATIONS 
       AND A TOTAL OF          5 INNER ITERATIONS.
    ------------------------------------------------

 NO OUTPUT CONTROL FOR STRESS PERIOD   29   TIME STEP   23
 
 SOLVING FOR HEAD 
                                                   Max.-Head-Change                         Max.-Flux-Residual
  Residual-Control   Outer-Iter.   Inner-Iter.     Column Row Layer    Maximum-Head-Change  Column Row Layer    Maximum-Flux-Residual          L2-NORM 
          0                 1           2             3    7     1       0.5548429284E-02       9    5    1        -0.1529439675E+00      0.7002098367E+00
          0                 2           2             3    7     1      -0.5397119617E-03       9    5    1         0.1529438422E-01      0.7001906099E-01
          0                 3           1             3    7     1       0.3675239441E-04       9    5    1        -0.1070607470E-02      0.4901148003E-02

    ------------------------------------------------
       NWT REQUIRED            3 OUTER ITERATIONS 
       AND A TOTAL OF          5 INNER ITERATIONS.
    ------------------------------------------------

 NO OUTPUT CONTROL FOR STRESS PERIOD   29   TIME STEP   24
 
 SOLVING FOR HEAD 
                                                   Max.-Head-Change                         Max.-Flux-Residual
  Residual-Control   Outer-Iter.   Inner-Iter.     Column Row Layer    Maximum-Head-Change  Column Row Layer    Maximum-Flux-Residual          L2-NORM 
          0                 1           2             3    7     1       0.5459336311E-02       9    5    1        -0.1524680095E+00      0.6910351985E+00
          0                 2           2             3    7     1      -0.5310456075E-03       9    5    1         0.1524678845E-01      0.6910164667E-01
          0                 3           1             3    7     1       0.3616224795E-04       9    5    1        -0.1067275781E-02      0.4836986590E-02

    ------------------------------------------------
       NWT REQUIRED            3 OUTER ITERATIONS 
       AND A TOTAL OF          5 INNER ITERATIONS.
    ------------------------------------------------

 NO OUTPUT CONTROL FOR STRESS PERIOD   29   TIME STEP   25
 
 SOLVING FOR HEAD 
                                                   Max.-Head-Change                         Max.-Flux-Residual
  Residual-Control   Outer-Iter.   Inner-Iter.     Column Row Layer    Maximum-Head-Change  Column Row Layer    Maximum-Flux-Residual          L2-NORM 
          0                 1           2             3    7     1       0.5372235619E-02       9    5    1        -0.1519919952E+00      0.6822322059E+00
          0                 2           2             3    7     1      -0.5225730485E-03       9    5    1         0.1519918708E-01      0.6822124286E-01
          0                 3           1             3    7     1       0.3558529780E-04       9    5    1        -0.1063943661E-02      0.4775312932E-02

    ------------------------------------------------
       NWT REQUIRED            3 OUTER ITERATIONS 
       AND A TOTAL OF          5 INNER ITERATIONS.
    ------------------------------------------------

 NO OUTPUT CONTROL FOR STRESS PERIOD   29   TIME STEP   26
 
 SOLVING FOR HEAD 
                                                   Max.-Head-Change                         Max.-Flux-Residual
  Residual-Control   Outer-Iter.   Inner-Iter.     Column Row Layer    Maximum-Head-Change  Column Row Layer    Maximum-Flux-Residual          L2-NORM 
          0                 1           2             3    7     1       0.5286603799E-02       9    5    1        -0.1515160234E+00      0.6737814975E+00
          0                 2           2             3    7     1      -0.5142433722E-03       9    5    1         0.1515158993E-01      0.6737624112E-01
          0                 3           1             3    7     1       0.3501807705E-04       9    5    1        -0.1060611869E-02      0.4716182300E-02

    ------------------------------------------------
       NWT REQUIRED            3 OUTER ITERATIONS 
       AND A TOTAL OF          5 INNER ITERATIONS.
    ------------------------------------------------

 NO OUTPUT CONTROL FOR STRESS PERIOD   29   TIME STEP   27
 
 SOLVING FOR HEAD 
                                                   Max.-Head-Change                         Max.-Flux-Residual
  Residual-Control   Outer-Iter.   Inner-Iter.     Column Row Layer    Maximum-Head-Change  Column Row Layer    Maximum-Flux-Residual          L2-NORM 
          0                 1           2             3    7     1       0.5202418395E-02       9    5    1        -0.1510401463E+00      0.6656643542E+00
          0                 2           2             3    7     1      -0.5060543940E-03       9    5    1         0.1510400228E-01      0.6656455349E-01
          0                 3           1             3    7     1       0.3446043802E-04       9    5    1        -0.1057280733E-02      0.4659379175E-02

    ------------------------------------------------
       NWT REQUIRED            3 OUTER ITERATIONS 
       AND A TOTAL OF          5 INNER ITERATIONS.
    ------------------------------------------------

 NO OUTPUT CONTROL FOR STRESS PERIOD   29   TIME STEP   28
 
 SOLVING FOR HEAD 
                                                   Max.-Head-Change                         Max.-Flux-Residual
  Residual-Control   Outer-Iter.   Inner-Iter.     Column Row Layer    Maximum-Head-Change  Column Row Layer    Maximum-Flux-Residual          L2-NORM 
          0                 1           2             3    7     1       0.5120142332E-02       9    5    1        -0.1505582436E+00      0.6578660288E+00
          0                 2           2             3    7     1      -0.4980511437E-03       9    5    1         0.1505581207E-01      0.6578464263E-01
          0                 3           1             3    7     1       0.3391544646E-04       9    5    1        -0.1053907419E-02      0.4604754821E-02

    ------------------------------------------------
       NWT REQUIRED            3 OUTER ITERATIONS 
       AND A TOTAL OF          5 INNER ITERATIONS.
    ------------------------------------------------

 NO OUTPUT CONTROL FOR STRESS PERIOD   29   TIME STEP   29
 
 SOLVING FOR HEAD 
                                                   Max.-Head-Change                         Max.-Flux-Residual
  Residual-Control   Outer-Iter.   Inner-Iter.     Column Row Layer    Maximum-Head-Change  Column Row Layer    Maximum-Flux-Residual          L2-NORM 
          0                 1           2             3    7     1       0.5039249155E-02       9    5    1        -0.1500827971E+00      0.6503631979E+00
          0                 2           2             3    7     1      -0.4901824118E-03       9    5    1         0.1500826746E-01      0.6503442630E-01
          0                 3           1             3    7     1       0.3337961497E-04       9    5    1        -0.1050579307E-02      0.4552284538E-02

    ------------------------------------------------
       NWT REQUIRED            3 OUTER ITERATIONS 
       AND A TOTAL OF          5 INNER ITERATIONS.
    ------------------------------------------------

 NO OUTPUT CONTROL FOR STRESS PERIOD   29   TIME STEP   30



 STREAM LISTING     PERIOD     29   STEP       30

 LAYER ROW COL. STREAM  RCH.  FLOW INTO     FLOW TO   FLOW OUT OF   OVRLND.     DIRECT     STREAM       STREAM     STREAM     STREAM   STREAMBED  STREAMBED
                SEG.NO.  NO.  STRM. RCH.    AQUIFER    STRM. RCH.    RUNOFF     PRECIP       ET          HEAD       DEPTH      WIDTH   CONDCTNC.   GRADIENT

   1    1    1     1     1    1.9000E+01  2.1427E-01   1.8786E+01  0.000E+00  0.000E+00  0.000E+00  1.09413E+03  1.082E+00  1.166E+01  5.249E-02  1.361E+00
   1    2    2     1     2    1.8786E+01  3.3054E-01   1.8455E+01  0.000E+00  0.000E+00  0.000E+00  1.08914E+03  1.077E+00  1.158E+01  8.107E-02  1.359E+00
   1    3    3     1     3    1.8455E+01  2.8064E-01   1.8175E+01  0.000E+00  0.000E+00  0.000E+00  1.08349E+03  1.072E+00  1.149E+01  6.892E-02  1.357E+00
   1    3    4     1     4    1.8175E+01  2.5740E-01   1.7917E+01  0.000E+00  0.000E+00  0.000E+00  1.07848E+03  1.068E+00  1.140E+01  6.328E-02  1.356E+00
   1    4    5     2     1    1.5917E+01  3.0542E-01   1.5612E+01  0.000E+00  0.000E+00  0.000E+00  1.07285E+03  9.157E-01  1.200E+01  7.800E-02  1.305E+00
   1    5    6     2     2    1.5612E+01  2.3438E-01   1.5377E+01  0.000E+00  0.000E+00  0.000E+00  1.06742E+03  9.063E-01  1.200E+01  6.000E-02  1.302E+00
   1    6    6     2     3    1.5377E+01  2.3388E-01   1.5143E+01  0.000E+00  0.000E+00  0.000E+00  1.06269E+03  8.980E-01  1.200E+01  6.000E-02  1.299E+00
   1    7    6     2     4    1.5143E+01  2.3338E-01   1.4910E+01  0.000E+00  0.000E+00  0.000E+00  1.05797E+03  8.897E-01  1.200E+01  6.000E-02  1.297E+00
   1    8    6     2     5    1.4910E+01  2.3289E-01   1.4677E+01  0.000E+00  0.000E+00  0.000E+00  1.05324E+03  8.814E-01  1.200E+01  6.000E-02  1.294E+00
   1    3    5     3     1    2.0000E+00  2.8252E-01   1.7175E+00  0.000E+00  0.000E+00  0.000E+00  1.07555E+03  1.909E+00  9.636E+00  7.227E-02  1.955E+00
   1    3    6     3     2    1.7175E+00  2.4905E-01   1.4684E+00  0.000E+00  0.000E+00  0.000E+00  1.07264E+03  1.727E+00  8.909E+00  6.682E-02  1.864E+00
   1    3    7     3     3    1.4684E+00  1.9718E-01   1.2712E+00  0.000E+00  0.000E+00  0.000E+00  1.06987E+03  1.555E+00  8.218E+00  5.547E-02  1.777E+00
   1    4    8     3     4    1.2712E+00  2.2567E-01   1.0456E+00  0.000E+00  0.000E+00  0.000E+00  1.06682E+03  1.364E+00  7.455E+00  6.709E-02  1.682E+00
   1    5    8     3     5    1.0456E+00  1.5790E-01   8.8768E-01  0.000E+00  0.000E+00  0.000E+00  1.06362E+03  1.164E+00  6.655E+00  4.991E-02  1.582E+00
   1    6    8     3     6    8.8768E-01  5.5980E-02   8.3170E-01  0.000E+00  0.000E+00  0.000E+00  1.06158E+03  1.036E+00  6.145E+00  1.844E-02  1.518E+00
   1    5   10     4     1    1.0000E+01  9.0919E-02   9.9091E+00  0.000E+00  0.000E+00  0.000E+00  1.07836E+03  6.368E-01  1.000E+01  2.500E-02  1.212E+00
   1    5    9     4     2    9.9091E+00  1.8158E-01   9.7275E+00  0.000E+00  0.000E+00  0.000E+00  1.07154E+03  6.315E-01  1.000E+01  5.000E-02  1.211E+00
   1    6    8     4     3    9.7275E+00  1.2689E-01   9.6006E+00  0.000E+00  0.000E+00  0.000E+00  1.06381E+03  6.256E-01  1.000E+01  3.500E-02  1.209E+00
   1    6    8     5     1    1.0432E+01  2.2686E-01   1.0205E+01  0.000E+00  0.000E+00  0.000E+00  1.05868E+03  6.790E-01  1.542E+01  6.166E-02  1.226E+00
   1    7    7     5     2    1.0205E+01  2.7894E-01   9.9265E+00  0.000E+00  0.000E+00  0.000E+00  1.05417E+03  6.732E-01  1.519E+01  7.594E-02  1.224E+00
   1    8    7     5     3    9.9265E+00  1.9221E-01   9.7343E+00  0.000E+00  0.000E+00  0.000E+00  1.04992E+03  6.676E-01  1.497E+01  5.241E-02  1.223E+00
   1    8    6     5     4    9.7343E+00  1.3577E-01   9.5985E+00  0.000E+00  0.000E+00  0.000E+00  1.04691E+03  6.637E-01  1.482E+01  3.706E-02  1.221E+00
   1    9    6     6     1    2.4276E+01  2.5176E-01   2.4024E+01  0.000E+00  0.000E+00  0.000E+00  1.04392E+03  1.196E+00  1.200E+01  6.000E-02  1.399E+00
   1   10    7     6     2    2.4024E+01  2.5131E-01   2.3773E+01  0.000E+00  0.000E+00  0.000E+00  1.03937E+03  1.188E+00  1.200E+01  6.000E-02  1.396E+00
   1   11    7     6     3    2.3773E+01  2.5086E-01   2.3522E+01  0.000E+00  0.000E+00  0.000E+00  1.03482E+03  1.181E+00  1.200E+01  6.000E-02  1.394E+00
   1   12    7     6     4    2.3522E+01  2.5041E-01   2.3271E+01  0.000E+00  0.000E+00  0.000E+00  1.03026E+03  1.173E+00  1.200E+01  6.000E-02  1.391E+00
   1   13    7     6     5    2.3271E+01  5.4233E-03   2.3266E+01  0.000E+00  0.000E+00  0.000E+00  1.02708E+03  1.170E+00  1.200E+01  2.400E-02  7.532E-02
   1   14    9     7     1    1.5000E+02  1.3438E+00   1.4866E+02  0.000E+00  0.000E+00  0.000E+00  1.03987E+03  2.288E+00  5.529E+01  5.593E-01  8.009E-01
   1   13    8     7     2    1.4866E+02  1.8888E+00   1.4677E+02  0.000E+00  0.000E+00  0.000E+00  1.03478E+03  2.279E+00  5.526E+01  6.148E-01  1.024E+00
   1   13    7     7     3    1.4677E+02  1.5839E+00   1.4518E+02  0.000E+00  0.000E+00  0.000E+00  1.02969E+03  2.270E+00  5.521E+01  5.584E-01  9.455E-01
   1   13    6     8     1    1.6845E+02  1.0305E+00   1.6742E+02  0.000E+00  0.000E+00  0.000E+00  1.02481E+03  2.939E+00  4.261E+01  4.342E-01  7.910E-01
   1   13    5     8     2    1.6742E+02  2.8152E-01   1.6714E+02  0.000E+00  0.000E+00  0.000E+00  1.01856E+03  2.934E+00  4.255E+01  4.336E-01  2.164E-01
   1   13    4     8     3    1.6714E+02 -2.0744E+00   1.6921E+02  0.000E+00  0.000E+00  0.000E+00  1.01232E+03  2.940E+00  4.263E+01  4.345E+00 -1.592E-01
   1   13    3     8     4    1.6921E+02 -3.4761E+00   1.7269E+02  0.000E+00  0.000E+00  0.000E+00  1.00608E+03  2.958E+00  4.290E+01  4.371E+00 -2.651E-01
   1   13    2     8     5    1.7269E+02 -2.5396E+00   1.7523E+02  0.000E+00  0.000E+00  0.000E+00  9.99853E+02  2.978E+00  4.318E+01  4.400E+00 -1.924E-01
   1   13    1     8     6    1.7523E+02 -1.9746E+00   1.7720E+02  0.000E+00  0.000E+00  0.000E+00  9.94867E+02  2.992E+00  4.339E+01  2.653E+00 -2.481E-01





UNSATURATED ZONE PACKAGE VOLUMETRIC BUDGET FOR  TIME STEP    30 STRESS PERIOD   29
  ------------------------------------------------------------------------------



     CUMULATIVE VOLUMES      L**3       RATES FOR THIS TIME STEP      L**3/T
     ------------------                 ------------------------

           IN:                                      IN:
           ---                                      ---
        INFILTRATION =   942351331.3359          INFILTRATION =           4.5675

          OUT:                                     OUT:
          ----                                     ----
              UZF ET =   866423746.8699                UZF ET =           4.5675
        UZF RECHARGE =    75855283.4546          UZF RECHARGE =       0.0000E+00

            IN - OUT =       72301.0114              IN - OUT =       0.0000E+00

          STORAGE:                                 STORAGE:
          --------                                 --------
      STORAGE CHANGE =       72305.0228        STORAGE CHANGE =       8.5648E-15

 PERCENT DISCREPANCY IS DIFFERENCE BETWEEN IN-OUT MINUS CHANGE IN STORAGE
 DIVIDED BY THE AVERAGE OF IN AND OUT TIMES 100

 PERCENT DISCREPANCY =           0.00     PERCENT DISCREPANCY =           0.00






1
  VOLUMETRIC BUDGET FOR AGRICULTURAL FIELDS AT  END OF TIME STEP   30, STRESS PERIOD  29
  ------------------------------------------------------------------------------

     CUMULATIVE VOLUMES      L**3       RATES FOR THIS TIME STEP      L**3/T
     ------------------                 ------------------------

           IN:                                      IN:
           ---                                      ---
               AG WELLS  =   879867648.0000                 AG WELLS  =           3.7200
      DIVERSION SEGMENTS =           0.0000        DIVERSION SEGMENTS =           0.0000
           GW IRRIGATION =           0.0000             GW IRRIGATION =           0.0000
           SW IRRIGATION =           0.0000             SW IRRIGATION =           0.0000
        SYSTEM LOSSES GW =           0.0000          SYSTEM LOSSES GW =           0.0000
        SYSTEM LOSSES SW =           0.0000          SYSTEM LOSSES SW =           0.0000

                TOTAL IN =   879867648.0000                  TOTAL IN =           3.7200

          OUT:                                     OUT:
          ----                                     ----
               AG WELLS  =           0.0000                 AG WELLS  =           0.0000
      DIVERSION SEGMENTS =           0.0000        DIVERSION SEGMENTS =           0.0000
           GW IRRIGATION =   879867648.0000             GW IRRIGATION =           3.7200
           SW IRRIGATION =           0.0000             SW IRRIGATION =           0.0000
        SYSTEM LOSSES GW =           0.0000          SYSTEM LOSSES GW =           0.0000
        SYSTEM LOSSES SW =           0.0000          SYSTEM LOSSES SW =           0.0000

               TOTAL OUT =   879867648.0000                 TOTAL OUT =           3.7200

                IN - OUT =           0.0000                  IN - OUT =           0.0000

     PERCENT DISCREPANCY =           0.00         PERCENT DISCREPANCY =           0.00



1
  VOLUMETRIC BUDGET FOR ENTIRE MODEL AT END OF TIME STEP   30, STRESS PERIOD  29
  ------------------------------------------------------------------------------

     CUMULATIVE VOLUMES      L**3       RATES FOR THIS TIME STEP      L**3/T
     ------------------                 ------------------------

           IN:                                      IN:
           ---                                      ---
             STORAGE     =  1200227072.0000               STORAGE     =           3.8516
       CONSTANT HEAD     =           0.0000         CONSTANT HEAD     =           0.0000
     HEAD DEP BOUNDS     =    21053634.0000       HEAD DEP BOUNDS     =           0.2863
      STREAM LEAKAGE     =   908741824.0000        STREAM LEAKAGE     =          11.8625
        UZF RECHARGE     =    75855336.0000          UZF RECHARGE     =           0.0000
               GW ET     =           0.0000                 GW ET     =           0.0000
     SURFACE LEAKAGE     =           0.0000       SURFACE LEAKAGE     =           0.0000
           AG WELLS      =           0.0000             AG WELLS      =           0.0000

                TOTAL IN =  2205878016.0000                  TOTAL IN =          16.0004

          OUT:                                     OUT:
          ----                                     ----
             STORAGE     =   524399584.0000               STORAGE     =           1.9260
       CONSTANT HEAD     =           0.0000         CONSTANT HEAD     =           0.0000
     HEAD DEP BOUNDS     =    21629854.0000       HEAD DEP BOUNDS     =           0.2892
      STREAM LEAKAGE     =   762369664.0000        STREAM LEAKAGE     =          10.0646
        UZF RECHARGE     =           0.0000          UZF RECHARGE     =           0.0000
               GW ET     =    17607600.0000                 GW ET     =           0.0000
     SURFACE LEAKAGE     =           0.0000       SURFACE LEAKAGE     =           0.0000
           AG WELLS      =   879867648.0000             AG WELLS      =           3.7200

               TOTAL OUT =  2205874176.0000                 TOTAL OUT =          15.9999

                IN - OUT =        3840.0000                  IN - OUT =       5.5504E-04

     PERCENT DISCREPANCY =           0.00         PERCENT DISCREPANCY =           0.00






         TIME SUMMARY AT END OF TIME STEP   30 IN STRESS PERIOD   29
                    SECONDS     MINUTES      HOURS       DAYS        YEARS
                    -----------------------------------------------------------
   TIME STEP LENGTH  87667.      1461.1      24.352      1.0147     2.77799E-03
 STRESS PERIOD TIME 2.63000E+06  43833.      730.56      30.440     8.33397E-02
         TOTAL TIME 7.37266E+07 1.22878E+06  20480.      853.32      2.3363    
1
1
                            STRESS PERIOD NO.   30, LENGTH =   2630000.    
                            -----------------------------------------------

                              NUMBER OF TIME STEPS =    30

                               MULTIPLIER FOR DELT =     1.000

                            INITIAL TIME STEP SIZE =   87666.66    

 REUSING NON-PARAMETER GHB CELLS FROM LAST STRESS PERIOD

      2 GHB CELLS

 REUSING STREAM SEGMENT DATA FROM LAST STRESS PERIOD



            AREAL INFILTRATION RATE
 READING ON UNIT   19 WITH FORMAT: (FREE)              

            1           2           3           4           5           6           7           8           9          10
 ........................................................................................................................
   1   1.0000E-10  2.0000E-10   0.000       0.000       0.000       0.000       0.000       0.000       0.000       0.000    
   2   2.0000E-10  1.0000E-10  2.0000E-10   0.000       0.000      8.0000E-10  8.0000E-10  5.0000E-10   0.000       0.000    
   3    0.000      5.0000E-10  1.0000E-10  1.0000E-10  8.0000E-10  8.0000E-10  5.0000E-10  5.0000E-10   0.000       0.000    
   4   8.0000E-10  5.0000E-10  1.0000E-10  1.0000E-10  1.0000E-10  1.0000E-10  1.0000E-10  1.0000E-10  2.0000E-10   0.000    
   5   8.0000E-10  5.0000E-10  1.0000E-10  1.0000E-10  1.0000E-10  1.0000E-10  1.0000E-10  1.0000E-10  1.0000E-10  1.0000E-10
   6   8.0000E-10  5.0000E-10  5.0000E-10  2.0000E-10  2.0000E-10  1.0000E-10  1.0000E-10  1.0000E-10  1.0000E-10  5.0000E-10
   7   8.0000E-10  5.0000E-10  5.0000E-10  2.0000E-10  2.0000E-10  1.0000E-10  1.0000E-10  2.0000E-10  2.0000E-10   0.000    
   8    0.000      5.0000E-10  5.0000E-10  2.0000E-10  2.0000E-10  1.0000E-10  1.0000E-10  2.0000E-10  5.0000E-10   0.000    
   9    0.000      5.0000E-10  5.0000E-10  2.0000E-10  2.0000E-10  1.0000E-10  1.0000E-10  2.0000E-10  5.0000E-10   0.000    
  10    0.000      5.0000E-10  5.0000E-10  2.0000E-10  2.0000E-10  1.0000E-10  1.0000E-10  2.0000E-10  5.0000E-10  8.0000E-10
  11    0.000      1.0000E-10  1.0000E-10  1.0000E-10  1.0000E-10  1.0000E-10  1.0000E-10  2.0000E-10  5.0000E-10   0.000    
  12   1.0000E-10  1.0000E-10  1.0000E-10  1.0000E-10  1.0000E-10  1.0000E-10  1.0000E-10  1.0000E-10  2.0000E-10   0.000    
  13   1.0000E-10  1.0000E-10  2.0000E-10  2.0000E-10  2.0000E-10  2.0000E-10  2.0000E-10  1.0000E-10  1.0000E-10   0.000    
  14    0.000      2.0000E-10  5.0000E-10  5.0000E-10  5.0000E-10  5.0000E-10  5.0000E-10  2.0000E-10  1.0000E-10   0.000    
  15    0.000       0.000      8.0000E-10  8.0000E-10  8.0000E-10  8.0000E-10   0.000       0.000       0.000       0.000    

                  ET RATE =  5.000000E-08

 USING ET EXTINCTION DEPTH FROM PREVIOUS STRESS PERIOD. CURRENT PERIOD IS:      30

 USING EXTINCTION WATER CONTENT FROM PREVIOUS STRESS PERIOD. CURRENT PERIOD IS:      30

 USING AIR ENTRY PRESSURE FROM PREVIOUS STRESS PERIOD. CURRENT PERIOD IS:      30

 USING ROOT PRESSURE HEAD FROM PREVIOUS STRESS PERIOD. CURRENT PERIOD IS:      30

 USING ROOT ACTIVITY FROM PREVIOUS STRESS PERIOD. CURRENT PERIOD IS:      30

 PROCESSING AG STRESS PERIOD DATA

 READING AG STRESS PERIOD DATA

 READING IRRIGATION WELL

 END PROCESSING AG STRESS PERIOD DATA OPTIONS
 
 SOLVING FOR HEAD 
                                                   Max.-Head-Change                         Max.-Flux-Residual
  Residual-Control   Outer-Iter.   Inner-Iter.     Column Row Layer    Maximum-Head-Change  Column Row Layer    Maximum-Flux-Residual          L2-NORM 
          0                 1           2             4    7     1      -0.1317721490E-01       4    7    1        -0.6900748409E+00      0.1752963147E+01
          0                 2           2             4    7     1       0.1281783053E-02       4    7    1         0.6900744956E-01      0.1752952903E+00
          0                 3           1             4    7     1      -0.8728467956E-04       4    7    1        -0.4830523895E-02      0.1227062671E-01

    ------------------------------------------------
       NWT REQUIRED            3 OUTER ITERATIONS 
       AND A TOTAL OF          5 INNER ITERATIONS.
    ------------------------------------------------

 NO OUTPUT CONTROL FOR STRESS PERIOD   30   TIME STEP    1
 
 SOLVING FOR HEAD 
                                                   Max.-Head-Change                         Max.-Flux-Residual
  Residual-Control   Outer-Iter.   Inner-Iter.     Column Row Layer    Maximum-Head-Change  Column Row Layer    Maximum-Flux-Residual          L2-NORM 
          0                 1           2             4    7     1      -0.1306819781E-01       4    7    1        -0.6846747391E+00      0.1714623080E+01
          0                 2           2             4    7     1       0.1271178489E-02       4    7    1         0.6846742731E-01      0.1714612857E+00
          0                 3           1             4    7     1      -0.8656254976E-04       4    7    1        -0.4792722430E-02      0.1200222732E-01

    ------------------------------------------------
       NWT REQUIRED            3 OUTER ITERATIONS 
       AND A TOTAL OF          5 INNER ITERATIONS.
    ------------------------------------------------

 NO OUTPUT CONTROL FOR STRESS PERIOD   30   TIME STEP    2
 
 SOLVING FOR HEAD 
                                                   Max.-Head-Change                         Max.-Flux-Residual
  Residual-Control   Outer-Iter.   Inner-Iter.     Column Row Layer    Maximum-Head-Change  Column Row Layer    Maximum-Flux-Residual          L2-NORM 
          0                 1           2             4    7     1      -0.1295442815E-01       4    7    1        -0.6790001360E+00      0.1678050935E+01
          0                 2           2             4    7     1       0.1260111649E-02       4    7    1         0.6789995624E-01      0.1678040739E+00
          0                 3           1             4    7     1      -0.8580894041E-04       4    7    1        -0.4752999519E-02      0.1174623677E-01

    ------------------------------------------------
       NWT REQUIRED            3 OUTER ITERATIONS 
       AND A TOTAL OF          5 INNER ITERATIONS.
    ------------------------------------------------

 NO OUTPUT CONTROL FOR STRESS PERIOD   30   TIME STEP    3
 
 SOLVING FOR HEAD 
                                                   Max.-Head-Change                         Max.-Flux-Residual
  Residual-Control   Outer-Iter.   Inner-Iter.     Column Row Layer    Maximum-Head-Change  Column Row Layer    Maximum-Flux-Residual          L2-NORM 
          0                 1           2             4    7     1      -0.1283668388E-01       4    7    1        -0.6730938167E+00      0.1643151653E+01
          0                 2           2             4    7     1       0.1248658206E-02       4    7    1         0.6730931472E-01      0.1643141440E+00
          0                 3           1             4    7     1      -0.8502900495E-04       4    7    1        -0.4711654707E-02      0.1150193269E-01

    ------------------------------------------------
       NWT REQUIRED            3 OUTER ITERATIONS 
       AND A TOTAL OF          5 INNER ITERATIONS.
    ------------------------------------------------

 NO OUTPUT CONTROL FOR STRESS PERIOD   30   TIME STEP    4
 
 SOLVING FOR HEAD 
                                                   Max.-Head-Change                         Max.-Flux-Residual
  Residual-Control   Outer-Iter.   Inner-Iter.     Column Row Layer    Maximum-Head-Change  Column Row Layer    Maximum-Flux-Residual          L2-NORM 
          0                 1           2             4    7     1      -0.1271542791E-01       4    7    1        -0.6669814244E+00      0.1609803623E+01
          0                 2           2             4    7     1       0.1236863186E-02       4    7    1         0.6669806703E-01      0.1609793464E+00
          0                 3           1             4    7     1      -0.8422580888E-04       4    7    1        -0.4668867435E-02      0.1126849855E-01

    ------------------------------------------------
       NWT REQUIRED            3 OUTER ITERATIONS 
       AND A TOTAL OF          5 INNER ITERATIONS.
    ------------------------------------------------

 NO OUTPUT CONTROL FOR STRESS PERIOD   30   TIME STEP    5
 
 SOLVING FOR HEAD 
                                                   Max.-Head-Change                         Max.-Flux-Residual
  Residual-Control   Outer-Iter.   Inner-Iter.     Column Row Layer    Maximum-Head-Change  Column Row Layer    Maximum-Flux-Residual          L2-NORM 
          0                 1           2             4    7     1      -0.1259083013E-01       4    7    1        -0.6606722673E+00      0.1577914020E+01
          0                 2           2             4    7     1       0.1224743113E-02       4    7    1         0.6606714388E-01      0.1577903781E+00
          0                 3           1             4    7     1      -0.8340047782E-04       4    7    1        -0.4624702848E-02      0.1104526190E-01

    ------------------------------------------------
       NWT REQUIRED            3 OUTER ITERATIONS 
       AND A TOTAL OF          5 INNER ITERATIONS.
    ------------------------------------------------

 NO OUTPUT CONTROL FOR STRESS PERIOD   30   TIME STEP    6
 
 SOLVING FOR HEAD 
                                                   Max.-Head-Change                         Max.-Flux-Residual
  Residual-Control   Outer-Iter.   Inner-Iter.     Column Row Layer    Maximum-Head-Change  Column Row Layer    Maximum-Flux-Residual          L2-NORM 
          0                 1           2             4    7     1      -0.1246357655E-01       4    7    1        -0.6542045387E+00      0.1547391952E+01
          0                 2           2             4    7     1       0.1212364718E-02       4    7    1         0.6542036450E-01      0.1547381923E+00
          0                 3           1             4    7     1      -0.8255755626E-04       4    7    1        -0.4579428338E-02      0.1083162021E-01

    ------------------------------------------------
       NWT REQUIRED            3 OUTER ITERATIONS 
       AND A TOTAL OF          5 INNER ITERATIONS.
    ------------------------------------------------

 NO OUTPUT CONTROL FOR STRESS PERIOD   30   TIME STEP    7
 
 SOLVING FOR HEAD 
                                                   Max.-Head-Change                         Max.-Flux-Residual
  Residual-Control   Outer-Iter.   Inner-Iter.     Column Row Layer    Maximum-Head-Change  Column Row Layer    Maximum-Flux-Residual          L2-NORM 
          0                 1           2             4    7     1      -0.1233377681E-01       4    7    1        -0.6475844238E+00      0.1518147998E+01
          0                 2           2             4    7     1       0.1199738664E-02       4    7    1         0.6475834740E-01      0.1518138213E+00
          0                 3           1             4    7     1      -0.8169776924E-04       4    7    1        -0.4533087176E-02      0.1062692880E-01

    ------------------------------------------------
       NWT REQUIRED            3 OUTER ITERATIONS 
       AND A TOTAL OF          5 INNER ITERATIONS.
    ------------------------------------------------

 NO OUTPUT CONTROL FOR STRESS PERIOD   30   TIME STEP    8
 
 SOLVING FOR HEAD 
                                                   Max.-Head-Change                         Max.-Flux-Residual
  Residual-Control   Outer-Iter.   Inner-Iter.     Column Row Layer    Maximum-Head-Change  Column Row Layer    Maximum-Flux-Residual          L2-NORM 
          0                 1           2             4    7     1      -0.1220206977E-01       4    7    1        -0.6408469895E+00      0.1490117068E+01
          0                 2           2             4    7     1       0.1186927092E-02       4    7    1         0.6408459907E-01      0.1490107210E+00
          0                 3           1             4    7     1      -0.8082534979E-04       4    7    1        -0.4485924826E-02      0.1043070561E-01

    ------------------------------------------------
       NWT REQUIRED            3 OUTER ITERATIONS 
       AND A TOTAL OF          5 INNER ITERATIONS.
    ------------------------------------------------

 NO OUTPUT CONTROL FOR STRESS PERIOD   30   TIME STEP    9
 
 SOLVING FOR HEAD 
                                                   Max.-Head-Change                         Max.-Flux-Residual
  Residual-Control   Outer-Iter.   Inner-Iter.     Column Row Layer    Maximum-Head-Change  Column Row Layer    Maximum-Flux-Residual          L2-NORM 
          0                 1           2             4    7     1      -0.1206864699E-01       4    7    1        -0.6340033234E+00      0.1463220947E+01
          0                 2           2             4    7     1       0.1173864219E-02       4    7    1         0.6340022833E-01      0.1461580243E+00
          0                 3           1             4    7     1      -0.7993581673E-04       4    7    1        -0.4438018888E-02      0.1023100995E-01

    ------------------------------------------------
       NWT REQUIRED            3 OUTER ITERATIONS 
       AND A TOTAL OF          5 INNER ITERATIONS.
    ------------------------------------------------

 NO OUTPUT CONTROL FOR STRESS PERIOD   30   TIME STEP   10
 
 SOLVING FOR HEAD 
                                                   Max.-Head-Change                         Max.-Flux-Residual
  Residual-Control   Outer-Iter.   Inner-Iter.     Column Row Layer    Maximum-Head-Change  Column Row Layer    Maximum-Flux-Residual          L2-NORM 
          0                 1           2             4    7     1      -0.1193408558E-01       4    7    1        -0.6270751898E+00      0.1437534377E+01
          0                 2           2             4    7     1       0.1160859459E-02       4    7    1         0.6270741177E-01      0.1437525111E+00
          0                 3           1             4    7     1      -0.7905024132E-04       4    7    1        -0.4389521736E-02      0.1006262819E-01

    ------------------------------------------------
       NWT REQUIRED            3 OUTER ITERATIONS 
       AND A TOTAL OF          5 INNER ITERATIONS.
    ------------------------------------------------

 NO OUTPUT CONTROL FOR STRESS PERIOD   30   TIME STEP   11
 
 SOLVING FOR HEAD 
                                                   Max.-Head-Change                         Max.-Flux-Residual
  Residual-Control   Outer-Iter.   Inner-Iter.     Column Row Layer    Maximum-Head-Change  Column Row Layer    Maximum-Flux-Residual          L2-NORM 
          0                 1           2             4    7     1      -0.1179840595E-01       4    7    1        -0.6200790516E+00      0.1412883011E+01
          0                 2           2             4    7     1       0.1147661493E-02       4    7    1         0.6200779521E-01      0.1412873856E+00
          0                 3           1             4    7     1      -0.7815150924E-04       4    7    1        -0.4340548581E-02      0.9890078822E-02

    ------------------------------------------------
       NWT REQUIRED            3 OUTER ITERATIONS 
       AND A TOTAL OF          5 INNER ITERATIONS.
    ------------------------------------------------

 NO OUTPUT CONTROL FOR STRESS PERIOD   30   TIME STEP   12
 
 SOLVING FOR HEAD 
                                                   Max.-Head-Change                         Max.-Flux-Residual
  Residual-Control   Outer-Iter.   Inner-Iter.     Column Row Layer    Maximum-Head-Change  Column Row Layer    Maximum-Flux-Residual          L2-NORM 
          0                 1           2             4    7     1      -0.1166181091E-01       4    7    1        -0.6130220818E+00      0.1389165605E+01
          0                 2           2             4    7     1       0.1134374489E-02       4    7    1         0.6130209599E-01      0.1389156506E+00
          0                 3           1             4    7     1      -0.7724671407E-04       4    7    1        -0.4291149632E-02      0.9724036415E-02

    ------------------------------------------------
       NWT REQUIRED            3 OUTER ITERATIONS 
       AND A TOTAL OF          5 INNER ITERATIONS.
    ------------------------------------------------

 NO OUTPUT CONTROL FOR STRESS PERIOD   30   TIME STEP   13
 
 SOLVING FOR HEAD 
                                                   Max.-Head-Change                         Max.-Flux-Residual
  Residual-Control   Outer-Iter.   Inner-Iter.     Column Row Layer    Maximum-Head-Change  Column Row Layer    Maximum-Flux-Residual          L2-NORM 
          0                 1           2             4    7     1      -0.1152481888E-01       4    7    1        -0.6059323427E+00      0.1366353430E+01
          0                 2           2             4    7     1       0.1121048877E-02       4    7    1         0.6059312033E-01      0.1366343401E+00
          0                 3           1             4    7     1      -0.7633928934E-04       4    7    1        -0.4241521338E-02      0.9564301827E-02

    ------------------------------------------------
       NWT REQUIRED            3 OUTER ITERATIONS 
       AND A TOTAL OF          5 INNER ITERATIONS.
    ------------------------------------------------

 NO OUTPUT CONTROL FOR STRESS PERIOD   30   TIME STEP   14
 
 SOLVING FOR HEAD 
                                                   Max.-Head-Change                         Max.-Flux-Residual
  Residual-Control   Outer-Iter.   Inner-Iter.     Column Row Layer    Maximum-Head-Change  Column Row Layer    Maximum-Flux-Residual          L2-NORM 
          0                 1           2             4    7     1      -0.1138750936E-01       4    7    1        -0.5988146793E+00      0.1344387899E+01
          0                 2           2             4    7     1       0.1107692387E-02       4    7    1         0.5988135265E-01      0.1344377536E+00
          0                 3           1             4    7     1      -0.7542976200E-04       4    7    1        -0.4191697584E-02      0.9411923458E-02

    ------------------------------------------------
       NWT REQUIRED            3 OUTER ITERATIONS 
       AND A TOTAL OF          5 INNER ITERATIONS.
    ------------------------------------------------

 NO OUTPUT CONTROL FOR STRESS PERIOD   30   TIME STEP   15
 
 SOLVING FOR HEAD 
                                                   Max.-Head-Change                         Max.-Flux-Residual
  Residual-Control   Outer-Iter.   Inner-Iter.     Column Row Layer    Maximum-Head-Change  Column Row Layer    Maximum-Flux-Residual          L2-NORM 
          0                 1           2             4    7     1      -0.1125008298E-01       4    7    1        -0.5916805583E+00      0.1323222076E+01
          0                 2           2             4    7     1       0.1094324536E-02       4    7    1         0.5916793964E-01      0.1323212831E+00
          0                 3           1             4    7     1      -0.7451946110E-04       4    7    1        -0.4141758656E-02      0.9262421177E-02

    ------------------------------------------------
       NWT REQUIRED            3 OUTER ITERATIONS 
       AND A TOTAL OF          5 INNER ITERATIONS.
    ------------------------------------------------

 NO OUTPUT CONTROL FOR STRESS PERIOD   30   TIME STEP   16
 
 SOLVING FOR HEAD 
                                                   Max.-Head-Change                         Max.-Flux-Residual
  Residual-Control   Outer-Iter.   Inner-Iter.     Column Row Layer    Maximum-Head-Change  Column Row Layer    Maximum-Flux-Residual          L2-NORM 
          0                 1           2             4    7     1      -0.1111259585E-01       4    7    1        -0.5845330381E+00      0.1302821197E+01
          0                 2           2             4    7     1       0.1080950780E-02       4    7    1         0.5845318703E-01      0.1302812034E+00
          0                 3           1             4    7     1      -0.7360875821E-04       4    7    1        -0.4091725970E-02      0.9119636447E-02

    ------------------------------------------------
       NWT REQUIRED            3 OUTER ITERATIONS 
       AND A TOTAL OF          5 INNER ITERATIONS.
    ------------------------------------------------

 NO OUTPUT CONTROL FOR STRESS PERIOD   30   TIME STEP   17
 
 SOLVING FOR HEAD 
                                                   Max.-Head-Change                         Max.-Flux-Residual
  Residual-Control   Outer-Iter.   Inner-Iter.     Column Row Layer    Maximum-Head-Change  Column Row Layer    Maximum-Flux-Residual          L2-NORM 
          0                 1           2             4    7     1      -0.1097549094E-01       4    7    1        -0.5773970594E+00      0.1283140575E+01
          0                 2           2             4    7     1       0.1067614209E-02       4    7    1         0.5773958890E-01      0.1283131511E+00
          0                 3           1             4    7     1      -0.7270058725E-04       4    7    1        -0.4041774073E-02      0.8981846688E-02

    ------------------------------------------------
       NWT REQUIRED            3 OUTER ITERATIONS 
       AND A TOTAL OF          5 INNER ITERATIONS.
    ------------------------------------------------

 NO OUTPUT CONTROL FOR STRESS PERIOD   30   TIME STEP   18
 
 SOLVING FOR HEAD 
                                                   Max.-Head-Change                         Max.-Flux-Residual
  Residual-Control   Outer-Iter.   Inner-Iter.     Column Row Layer    Maximum-Head-Change  Column Row Layer    Maximum-Flux-Residual          L2-NORM 
          0                 1           2             4    7     1      -0.1083865586E-01       4    7    1        -0.5702662144E+00      0.1264154809E+01
          0                 2           2             4    7     1       0.1054303889E-02       4    7    1         0.5702650444E-01      0.1264145620E+00
          0                 3           1             4    7     1      -0.7179420340E-04       4    7    1        -0.3991858134E-02      0.8848947851E-02

    ------------------------------------------------
       NWT REQUIRED            3 OUTER ITERATIONS 
       AND A TOTAL OF          5 INNER ITERATIONS.
    ------------------------------------------------

 NO OUTPUT CONTROL FOR STRESS PERIOD   30   TIME STEP   19
 
 SOLVING FOR HEAD 
                                                   Max.-Head-Change                         Max.-Flux-Residual
  Residual-Control   Outer-Iter.   Inner-Iter.     Column Row Layer    Maximum-Head-Change  Column Row Layer    Maximum-Flux-Residual          L2-NORM 
          0                 1           2             4    7     1      -0.1070250832E-01       4    7    1        -0.5631640506E+00      0.1245823297E+01
          0                 2           2             4    7     1       0.1041060452E-02       4    7    1         0.5631628833E-01      0.1245814300E+00
          0                 3           1             4    7     1      -0.7089237458E-04       4    7    1        -0.3942142982E-02      0.8720650586E-02

    ------------------------------------------------
       NWT REQUIRED            3 OUTER ITERATIONS 
       AND A TOTAL OF          5 INNER ITERATIONS.
    ------------------------------------------------

 NO OUTPUT CONTROL FOR STRESS PERIOD   30   TIME STEP   20
 
 SOLVING FOR HEAD 
                                                   Max.-Head-Change                         Max.-Flux-Residual
  Residual-Control   Outer-Iter.   Inner-Iter.     Column Row Layer    Maximum-Head-Change  Column Row Layer    Maximum-Flux-Residual          L2-NORM 
          0                 1           2             4    7     1      -0.1056690153E-01       4    7    1        -0.5560828514E+00      0.1228110177E+01
          0                 2           2             4    7     1       0.1027869618E-02       4    7    1         0.5560816892E-01      0.1228101423E+00
          0                 3           1             4    7     1      -0.6999412780E-04       4    7    1        -0.3892574604E-02      0.8596659755E-02

    ------------------------------------------------
       NWT REQUIRED            3 OUTER ITERATIONS 
       AND A TOTAL OF          5 INNER ITERATIONS.
    ------------------------------------------------

 NO OUTPUT CONTROL FOR STRESS PERIOD   30   TIME STEP   21
 
 SOLVING FOR HEAD 
                                                   Max.-Head-Change                         Max.-Flux-Residual
  Residual-Control   Outer-Iter.   Inner-Iter.     Column Row Layer    Maximum-Head-Change  Column Row Layer    Maximum-Flux-Residual          L2-NORM 
          0                 1           2             4    7     1      -0.1043223744E-01       4    7    1        -0.5490443787E+00      0.1211001331E+01
          0                 2           2             4    7     1       0.1014770485E-02       4    7    1         0.5490432235E-01      0.1210992678E+00
          0                 3           1             4    7     1      -0.6910212553E-04       4    7    1        -0.3843305326E-02      0.8476899912E-02

    ------------------------------------------------
       NWT REQUIRED            3 OUTER ITERATIONS 
       AND A TOTAL OF          5 INNER ITERATIONS.
    ------------------------------------------------

 NO OUTPUT CONTROL FOR STRESS PERIOD   30   TIME STEP   22
 
 SOLVING FOR HEAD 
                                                   Max.-Head-Change                         Max.-Flux-Residual
  Residual-Control   Outer-Iter.   Inner-Iter.     Column Row Layer    Maximum-Head-Change  Column Row Layer    Maximum-Flux-Residual          L2-NORM 
          0                 1           2             4    7     1      -0.1029834477E-01       4    7    1        -0.5420401005E+00      0.1194455572E+01
          0                 2           2             4    7     1       0.1001746395E-02       4    7    1         0.5420389543E-01      0.1194446126E+00
          0                 3           1             4    7     1      -0.6821523303E-04       4    7    1        -0.3794275403E-02      0.8361019742E-02

    ------------------------------------------------
       NWT REQUIRED            3 OUTER ITERATIONS 
       AND A TOTAL OF          5 INNER ITERATIONS.
    ------------------------------------------------

 NO OUTPUT CONTROL FOR STRESS PERIOD   30   TIME STEP   23
 
 SOLVING FOR HEAD 
                                                   Max.-Head-Change                         Max.-Flux-Residual
  Residual-Control   Outer-Iter.   Inner-Iter.     Column Row Layer    Maximum-Head-Change  Column Row Layer    Maximum-Flux-Residual          L2-NORM 
          0                 1           2             4    7     1      -0.1016546429E-01       4    7    1        -0.5350831659E+00      0.1178453357E+01
          0                 2           2             4    7     1       0.9888207644E-03       4    7    1         0.5350820302E-01      0.1178444590E+00
          0                 3           1             4    7     1      -0.6733504561E-04       4    7    1        -0.3745576918E-02      0.8249072595E-02

    ------------------------------------------------
       NWT REQUIRED            3 OUTER ITERATIONS 
       AND A TOTAL OF          5 INNER ITERATIONS.
    ------------------------------------------------

 NO OUTPUT CONTROL FOR STRESS PERIOD   30   TIME STEP   24
 
 SOLVING FOR HEAD 
                                                   Max.-Head-Change                         Max.-Flux-Residual
  Residual-Control   Outer-Iter.   Inner-Iter.     Column Row Layer    Maximum-Head-Change  Column Row Layer    Maximum-Flux-Residual          L2-NORM 
          0                 1           2             4    7     1      -0.1003382200E-01       4    7    1        -0.5281860575E+00      0.1162981803E+01
          0                 2           2             4    7     1       0.9760155773E-03       4    7    1         0.5281849336E-01      0.1162973058E+00
          0                 3           1             4    7     1      -0.6646305926E-04       4    7    1        -0.3697297192E-02      0.8140744838E-02

    ------------------------------------------------
       NWT REQUIRED            3 OUTER ITERATIONS 
       AND A TOTAL OF          5 INNER ITERATIONS.
    ------------------------------------------------

 NO OUTPUT CONTROL FOR STRESS PERIOD   30   TIME STEP   25
 
 SOLVING FOR HEAD 
                                                   Max.-Head-Change                         Max.-Flux-Residual
  Residual-Control   Outer-Iter.   Inner-Iter.     Column Row Layer    Maximum-Head-Change  Column Row Layer    Maximum-Flux-Residual          L2-NORM 
          0                 1           2             4    7     1      -0.9903217430E-02       4    7    1        -0.5213384651E+00      0.1147996419E+01
          0                 2           2             4    7     1       0.9633113351E-03       4    7    1         0.5213373544E-01      0.1147987693E+00
          0                 3           1             4    7     1      -0.6559794710E-04       4    7    1        -0.3649364112E-02      0.8035839857E-02

    ------------------------------------------------
       NWT REQUIRED            3 OUTER ITERATIONS 
       AND A TOTAL OF          5 INNER ITERATIONS.
    ------------------------------------------------

 NO OUTPUT CONTROL FOR STRESS PERIOD   30   TIME STEP   26
 
 SOLVING FOR HEAD 
                                                   Max.-Head-Change                         Max.-Flux-Residual
  Residual-Control   Outer-Iter.   Inner-Iter.     Column Row Layer    Maximum-Head-Change  Column Row Layer    Maximum-Flux-Residual          L2-NORM 
          0                 1           2             4    7     1      -0.9774001991E-02       4    7    1        -0.5145593649E+00      0.1133494324E+01
          0                 2           2             4    7     1       0.9507422180E-03       4    7    1         0.5145582683E-01      0.1133485585E+00
          0                 3           1             4    7     1      -0.6474203715E-04       4    7    1        -0.3601910476E-02      0.7934340187E-02

    ------------------------------------------------
       NWT REQUIRED            3 OUTER ITERATIONS 
       AND A TOTAL OF          5 INNER ITERATIONS.
    ------------------------------------------------

 NO OUTPUT CONTROL FOR STRESS PERIOD   30   TIME STEP   27
 
 SOLVING FOR HEAD 
                                                   Max.-Head-Change                         Max.-Flux-Residual
  Residual-Control   Outer-Iter.   Inner-Iter.     Column Row Layer    Maximum-Head-Change  Column Row Layer    Maximum-Flux-Residual          L2-NORM 
          0                 1           2             4    7     1      -0.9646098422E-02       4    7    1        -0.5078449496E+00      0.1119452695E+01
          0                 2           2             4    7     1       0.9383007118E-03       4    7    1         0.5078438681E-01      0.1119444144E+00
          0                 3           1             4    7     1      -0.6389481630E-04       4    7    1        -0.3554909632E-02      0.7836063937E-02

    ------------------------------------------------
       NWT REQUIRED            3 OUTER ITERATIONS 
       AND A TOTAL OF          5 INNER ITERATIONS.
    ------------------------------------------------

 NO OUTPUT CONTROL FOR STRESS PERIOD   30   TIME STEP   28
 
 SOLVING FOR HEAD 
                                                   Max.-Head-Change                         Max.-Flux-Residual
  Residual-Control   Outer-Iter.   Inner-Iter.     Column Row Layer    Maximum-Head-Change  Column Row Layer    Maximum-Flux-Residual          L2-NORM 
          0                 1           2             4    7     1      -0.9519430799E-02       4    7    1        -0.5011912136E+00      0.1105849893E+01
          0                 2           2             4    7     1       0.9259794306E-03       4    7    1         0.5011901479E-01      0.1105841647E+00
          0                 3           1             4    7     1      -0.6305578245E-04       4    7    1        -0.3508333557E-02      0.7740846851E-02

    ------------------------------------------------
       NWT REQUIRED            3 OUTER ITERATIONS 
       AND A TOTAL OF          5 INNER ITERATIONS.
    ------------------------------------------------

 NO OUTPUT CONTROL FOR STRESS PERIOD   30   TIME STEP   29
 
 SOLVING FOR HEAD 
                                                   Max.-Head-Change                         Max.-Flux-Residual
  Residual-Control   Outer-Iter.   Inner-Iter.     Column Row Layer    Maximum-Head-Change  Column Row Layer    Maximum-Flux-Residual          L2-NORM 
          0                 1           2             4    7     1      -0.9394320180E-02       4    7    1        -0.4946162463E+00      0.1092664825E+01
          0                 2           2             4    7     1       0.9138096043E-03       4    7    1         0.4946151971E-01      0.1092656484E+00
          0                 3           1             4    7     1      -0.6222706223E-04       4    7    1        -0.3462308872E-02      0.7648537536E-02

    ------------------------------------------------
       NWT REQUIRED            3 OUTER ITERATIONS 
       AND A TOTAL OF          5 INNER ITERATIONS.
    ------------------------------------------------

 NO OUTPUT CONTROL FOR STRESS PERIOD   30   TIME STEP   30



 STREAM LISTING     PERIOD     30   STEP       30

 LAYER ROW COL. STREAM  RCH.  FLOW INTO     FLOW TO   FLOW OUT OF   OVRLND.     DIRECT     STREAM       STREAM     STREAM     STREAM   STREAMBED  STREAMBED
                SEG.NO.  NO.  STRM. RCH.    AQUIFER    STRM. RCH.    RUNOFF     PRECIP       ET          HEAD       DEPTH      WIDTH   CONDCTNC.   GRADIENT

   1    1    1     1     1    1.9000E+01  2.1427E-01   1.8786E+01  0.000E+00  0.000E+00  0.000E+00  1.09413E+03  1.082E+00  1.166E+01  5.249E-02  1.361E+00
   1    2    2     1     2    1.8786E+01  3.3054E-01   1.8455E+01  0.000E+00  0.000E+00  0.000E+00  1.08914E+03  1.077E+00  1.158E+01  8.107E-02  1.359E+00
   1    3    3     1     3    1.8455E+01  2.8064E-01   1.8175E+01  0.000E+00  0.000E+00  0.000E+00  1.08349E+03  1.072E+00  1.149E+01  6.892E-02  1.357E+00
   1    3    4     1     4    1.8175E+01  2.5740E-01   1.7917E+01  0.000E+00  0.000E+00  0.000E+00  1.07848E+03  1.068E+00  1.140E+01  6.328E-02  1.356E+00
   1    4    5     2     1    1.5917E+01  3.0542E-01   1.5612E+01  0.000E+00  0.000E+00  0.000E+00  1.07285E+03  9.157E-01  1.200E+01  7.800E-02  1.305E+00
   1    5    6     2     2    1.5612E+01  2.3438E-01   1.5377E+01  0.000E+00  0.000E+00  0.000E+00  1.06742E+03  9.063E-01  1.200E+01  6.000E-02  1.302E+00
   1    6    6     2     3    1.5377E+01  2.3388E-01   1.5143E+01  0.000E+00  0.000E+00  0.000E+00  1.06269E+03  8.980E-01  1.200E+01  6.000E-02  1.299E+00
   1    7    6     2     4    1.5143E+01  2.3338E-01   1.4910E+01  0.000E+00  0.000E+00  0.000E+00  1.05797E+03  8.897E-01  1.200E+01  6.000E-02  1.297E+00
   1    8    6     2     5    1.4910E+01  2.3289E-01   1.4677E+01  0.000E+00  0.000E+00  0.000E+00  1.05324E+03  8.814E-01  1.200E+01  6.000E-02  1.294E+00
   1    3    5     3     1    2.0000E+00  2.8252E-01   1.7175E+00  0.000E+00  0.000E+00  0.000E+00  1.07555E+03  1.909E+00  9.636E+00  7.227E-02  1.955E+00
   1    3    6     3     2    1.7175E+00  2.4905E-01   1.4684E+00  0.000E+00  0.000E+00  0.000E+00  1.07264E+03  1.727E+00  8.909E+00  6.682E-02  1.864E+00
   1    3    7     3     3    1.4684E+00  1.9718E-01   1.2712E+00  0.000E+00  0.000E+00  0.000E+00  1.06987E+03  1.555E+00  8.218E+00  5.547E-02  1.777E+00
   1    4    8     3     4    1.2712E+00  2.2567E-01   1.0456E+00  0.000E+00  0.000E+00  0.000E+00  1.06682E+03  1.364E+00  7.455E+00  6.709E-02  1.682E+00
   1    5    8     3     5    1.0456E+00  1.5790E-01   8.8768E-01  0.000E+00  0.000E+00  0.000E+00  1.06362E+03  1.164E+00  6.655E+00  4.991E-02  1.582E+00
   1    6    8     3     6    8.8768E-01  5.5980E-02   8.3170E-01  0.000E+00  0.000E+00  0.000E+00  1.06158E+03  1.036E+00  6.145E+00  1.844E-02  1.518E+00
   1    5   10     4     1    1.0000E+01  9.0919E-02   9.9091E+00  0.000E+00  0.000E+00  0.000E+00  1.07836E+03  6.368E-01  1.000E+01  2.500E-02  1.212E+00
   1    5    9     4     2    9.9091E+00  1.8158E-01   9.7275E+00  0.000E+00  0.000E+00  0.000E+00  1.07154E+03  6.315E-01  1.000E+01  5.000E-02  1.211E+00
   1    6    8     4     3    9.7275E+00  1.2689E-01   9.6006E+00  0.000E+00  0.000E+00  0.000E+00  1.06381E+03  6.256E-01  1.000E+01  3.500E-02  1.209E+00
   1    6    8     5     1    1.0432E+01  2.2686E-01   1.0205E+01  0.000E+00  0.000E+00  0.000E+00  1.05868E+03  6.790E-01  1.542E+01  6.166E-02  1.226E+00
   1    7    7     5     2    1.0205E+01  2.7894E-01   9.9265E+00  0.000E+00  0.000E+00  0.000E+00  1.05417E+03  6.732E-01  1.519E+01  7.594E-02  1.224E+00
   1    8    7     5     3    9.9265E+00  1.9221E-01   9.7343E+00  0.000E+00  0.000E+00  0.000E+00  1.04992E+03  6.676E-01  1.497E+01  5.241E-02  1.223E+00
   1    8    6     5     4    9.7343E+00  1.3577E-01   9.5985E+00  0.000E+00  0.000E+00  0.000E+00  1.04691E+03  6.637E-01  1.482E+01  3.706E-02  1.221E+00
   1    9    6     6     1    2.4276E+01  2.5176E-01   2.4024E+01  0.000E+00  0.000E+00  0.000E+00  1.04392E+03  1.196E+00  1.200E+01  6.000E-02  1.399E+00
   1   10    7     6     2    2.4024E+01  2.5131E-01   2.3773E+01  0.000E+00  0.000E+00  0.000E+00  1.03937E+03  1.188E+00  1.200E+01  6.000E-02  1.396E+00
   1   11    7     6     3    2.3773E+01  2.5086E-01   2.3522E+01  0.000E+00  0.000E+00  0.000E+00  1.03482E+03  1.181E+00  1.200E+01  6.000E-02  1.394E+00
   1   12    7     6     4    2.3522E+01  2.5041E-01   2.3271E+01  0.000E+00  0.000E+00  0.000E+00  1.03026E+03  1.173E+00  1.200E+01  6.000E-02  1.391E+00
   1   13    7     6     5    2.3271E+01  5.8853E-03   2.3266E+01  0.000E+00  0.000E+00  0.000E+00  1.02708E+03  1.170E+00  1.200E+01  2.400E-02  8.174E-02
   1   14    9     7     1    1.5000E+02  1.3457E+00   1.4865E+02  0.000E+00  0.000E+00  0.000E+00  1.03987E+03  2.288E+00  5.529E+01  5.593E-01  8.020E-01
   1   13    8     7     2    1.4865E+02  1.8960E+00   1.4676E+02  0.000E+00  0.000E+00  0.000E+00  1.03478E+03  2.279E+00  5.526E+01  6.148E-01  1.028E+00
   1   13    7     7     3    1.4676E+02  1.5946E+00   1.4516E+02  0.000E+00  0.000E+00  0.000E+00  1.02969E+03  2.270E+00  5.521E+01  5.584E-01  9.519E-01
   1   13    6     8     1    1.6843E+02  1.0389E+00   1.6739E+02  0.000E+00  0.000E+00  0.000E+00  1.02481E+03  2.939E+00  4.261E+01  4.342E-01  7.976E-01
   1   13    5     8     2    1.6739E+02  2.8740E-01   1.6710E+02  0.000E+00  0.000E+00  0.000E+00  1.01856E+03  2.934E+00  4.255E+01  4.336E-01  2.210E-01
   1   13    4     8     3    1.6710E+02 -2.0590E+00   1.6916E+02  0.000E+00  0.000E+00  0.000E+00  1.01232E+03  2.940E+00  4.263E+01  4.344E+00 -1.580E-01
   1   13    3     8     4    1.6916E+02 -3.4657E+00   1.7263E+02  0.000E+00  0.000E+00  0.000E+00  1.00608E+03  2.958E+00  4.289E+01  4.371E+00 -2.643E-01
   1   13    2     8     5    1.7263E+02 -2.5355E+00   1.7516E+02  0.000E+00  0.000E+00  0.000E+00  9.99852E+02  2.977E+00  4.317E+01  4.399E+00 -1.921E-01
   1   13    1     8     6    1.7516E+02 -1.9732E+00   1.7714E+02  0.000E+00  0.000E+00  0.000E+00  9.94867E+02  2.992E+00  4.338E+01  2.652E+00 -2.480E-01





UNSATURATED ZONE PACKAGE VOLUMETRIC BUDGET FOR  TIME STEP    30 STRESS PERIOD   30
  ------------------------------------------------------------------------------



     CUMULATIVE VOLUMES      L**3       RATES FOR THIS TIME STEP      L**3/T
     ------------------                 ------------------------

           IN:                                      IN:
           ---                                      ---
        INFILTRATION =   964226355.2748          INFILTRATION =           8.3175

          OUT:                                     OUT:
          ----                                     ----
              UZF ET =   888298770.8088                UZF ET =           8.3175
        UZF RECHARGE =    75855283.4546          UZF RECHARGE =       0.0000E+00

            IN - OUT =       72301.0114              IN - OUT =       0.0000E+00

          STORAGE:                                 STORAGE:
          --------                                 --------
      STORAGE CHANGE =       72305.0228        STORAGE CHANGE =       8.4823E-15

 PERCENT DISCREPANCY IS DIFFERENCE BETWEEN IN-OUT MINUS CHANGE IN STORAGE
 DIVIDED BY THE AVERAGE OF IN AND OUT TIMES 100

 PERCENT DISCREPANCY =           0.00     PERCENT DISCREPANCY =           0.00






1
  VOLUMETRIC BUDGET FOR AGRICULTURAL FIELDS AT  END OF TIME STEP   30, STRESS PERIOD  30
  ------------------------------------------------------------------------------

     CUMULATIVE VOLUMES      L**3       RATES FOR THIS TIME STEP      L**3/T
     ------------------                 ------------------------

           IN:                                      IN:
           ---                                      ---
               AG WELLS  =   899513088.0000                 AG WELLS  =           7.4700
      DIVERSION SEGMENTS =           0.0000        DIVERSION SEGMENTS =           0.0000
           GW IRRIGATION =           0.0000             GW IRRIGATION =           0.0000
           SW IRRIGATION =           0.0000             SW IRRIGATION =           0.0000
        SYSTEM LOSSES GW =           0.0000          SYSTEM LOSSES GW =           0.0000
        SYSTEM LOSSES SW =           0.0000          SYSTEM LOSSES SW =           0.0000

                TOTAL IN =   899513088.0000                  TOTAL IN =           7.4700

          OUT:                                     OUT:
          ----                                     ----
               AG WELLS  =           0.0000                 AG WELLS  =           0.0000
      DIVERSION SEGMENTS =           0.0000        DIVERSION SEGMENTS =           0.0000
           GW IRRIGATION =   899513088.0000             GW IRRIGATION =           7.4700
           SW IRRIGATION =           0.0000             SW IRRIGATION =           0.0000
        SYSTEM LOSSES GW =           0.0000          SYSTEM LOSSES GW =           0.0000
        SYSTEM LOSSES SW =           0.0000          SYSTEM LOSSES SW =           0.0000

               TOTAL OUT =   899513088.0000                 TOTAL OUT =           7.4700

                IN - OUT =           0.0000                  IN - OUT =           0.0000

     PERCENT DISCREPANCY =           0.00         PERCENT DISCREPANCY =           0.00



1
  VOLUMETRIC BUDGET FOR ENTIRE MODEL AT END OF TIME STEP   30, STRESS PERIOD  30
  ------------------------------------------------------------------------------

     CUMULATIVE VOLUMES      L**3       RATES FOR THIS TIME STEP      L**3/T
     ------------------                 ------------------------

           IN:                                      IN:
           ---                                      ---
             STORAGE     =  1217527808.0000               STORAGE     =           6.0389
       CONSTANT HEAD     =           0.0000         CONSTANT HEAD     =           0.0000
     HEAD DEP BOUNDS     =    21806778.0000       HEAD DEP BOUNDS     =           0.2864
      STREAM LEAKAGE     =   939988736.0000        STREAM LEAKAGE     =          11.8971
        UZF RECHARGE     =    75855336.0000          UZF RECHARGE     =           0.0000
               GW ET     =           0.0000                 GW ET     =           0.0000
     SURFACE LEAKAGE     =           0.0000       SURFACE LEAKAGE     =           0.0000
           AG WELLS      =           0.0000             AG WELLS      =           0.0000

                TOTAL IN =  2255178752.0000                  TOTAL IN =          18.2224

          OUT:                                     OUT:
          ----                                     ----
             STORAGE     =   526863552.0000               STORAGE     =           0.4281
       CONSTANT HEAD     =           0.0000         CONSTANT HEAD     =           0.0000
     HEAD DEP BOUNDS     =    22390508.0000       HEAD DEP BOUNDS     =           0.2892
      STREAM LEAKAGE     =   788795328.0000        STREAM LEAKAGE     =          10.0335
        UZF RECHARGE     =           0.0000          UZF RECHARGE     =           0.0000
               GW ET     =    17607600.0000                 GW ET     =           0.0000
     SURFACE LEAKAGE     =           0.0000       SURFACE LEAKAGE     =           0.0000
           AG WELLS      =   899513088.0000             AG WELLS      =           7.4700

               TOTAL OUT =  2255170048.0000                 TOTAL OUT =          18.2208

                IN - OUT =        8704.0000                  IN - OUT =       1.6098E-03

     PERCENT DISCREPANCY =           0.00         PERCENT DISCREPANCY =           0.01






         TIME SUMMARY AT END OF TIME STEP   30 IN STRESS PERIOD   30
                    SECONDS     MINUTES      HOURS       DAYS        YEARS
                    -----------------------------------------------------------
   TIME STEP LENGTH  87667.      1461.1      24.352      1.0147     2.77799E-03
 STRESS PERIOD TIME 2.63000E+06  43833.      730.56      30.440     8.33397E-02
         TOTAL TIME 7.63565E+07 1.27261E+06  21210.      883.76      2.4196    
1
1
                            STRESS PERIOD NO.   31, LENGTH =   2630000.    
                            -----------------------------------------------

                              NUMBER OF TIME STEPS =    30

                               MULTIPLIER FOR DELT =     1.000

                            INITIAL TIME STEP SIZE =   87666.66    

 REUSING NON-PARAMETER GHB CELLS FROM LAST STRESS PERIOD

      2 GHB CELLS

 REUSING STREAM SEGMENT DATA FROM LAST STRESS PERIOD



            AREAL INFILTRATION RATE
 READING ON UNIT   19 WITH FORMAT: (FREE)              

            1           2           3           4           5           6           7           8           9          10
 ........................................................................................................................
   1   1.0000E-10  2.0000E-10   0.000       0.000       0.000       0.000       0.000       0.000       0.000       0.000    
   2   2.0000E-10  1.0000E-10  2.0000E-10   0.000       0.000      8.0000E-10  8.0000E-10  5.0000E-10   0.000       0.000    
   3    0.000      5.0000E-10  1.0000E-10  1.0000E-10  8.0000E-10  8.0000E-10  5.0000E-10  5.0000E-10   0.000       0.000    
   4   8.0000E-10  5.0000E-10  1.0000E-10  1.0000E-10  1.0000E-10  1.0000E-10  1.0000E-10  1.0000E-10  2.0000E-10   0.000    
   5   8.0000E-10  5.0000E-10  1.0000E-10  1.0000E-10  1.0000E-10  1.0000E-10  1.0000E-10  1.0000E-10  1.0000E-10  1.0000E-10
   6   8.0000E-10  5.0000E-10  5.0000E-10  2.0000E-10  2.0000E-10  1.0000E-10  1.0000E-10  1.0000E-10  1.0000E-10  5.0000E-10
   7   8.0000E-10  5.0000E-10  5.0000E-10  2.0000E-10  2.0000E-10  1.0000E-10  1.0000E-10  2.0000E-10  2.0000E-10   0.000    
   8    0.000      5.0000E-10  5.0000E-10  2.0000E-10  2.0000E-10  1.0000E-10  1.0000E-10  2.0000E-10  5.0000E-10   0.000    
   9    0.000      5.0000E-10  5.0000E-10  2.0000E-10  2.0000E-10  1.0000E-10  1.0000E-10  2.0000E-10  5.0000E-10   0.000    
  10    0.000      5.0000E-10  5.0000E-10  2.0000E-10  2.0000E-10  1.0000E-10  1.0000E-10  2.0000E-10  5.0000E-10  8.0000E-10
  11    0.000      1.0000E-10  1.0000E-10  1.0000E-10  1.0000E-10  1.0000E-10  1.0000E-10  2.0000E-10  5.0000E-10   0.000    
  12   1.0000E-10  1.0000E-10  1.0000E-10  1.0000E-10  1.0000E-10  1.0000E-10  1.0000E-10  1.0000E-10  2.0000E-10   0.000    
  13   1.0000E-10  1.0000E-10  2.0000E-10  2.0000E-10  2.0000E-10  2.0000E-10  2.0000E-10  1.0000E-10  1.0000E-10   0.000    
  14    0.000      2.0000E-10  5.0000E-10  5.0000E-10  5.0000E-10  5.0000E-10  5.0000E-10  2.0000E-10  1.0000E-10   0.000    
  15    0.000       0.000      8.0000E-10  8.0000E-10  8.0000E-10  8.0000E-10   0.000       0.000       0.000       0.000    

                  ET RATE =  1.500000E-07

 USING ET EXTINCTION DEPTH FROM PREVIOUS STRESS PERIOD. CURRENT PERIOD IS:      31

 USING EXTINCTION WATER CONTENT FROM PREVIOUS STRESS PERIOD. CURRENT PERIOD IS:      31

 USING AIR ENTRY PRESSURE FROM PREVIOUS STRESS PERIOD. CURRENT PERIOD IS:      31

 USING ROOT PRESSURE HEAD FROM PREVIOUS STRESS PERIOD. CURRENT PERIOD IS:      31

 USING ROOT ACTIVITY FROM PREVIOUS STRESS PERIOD. CURRENT PERIOD IS:      31

 PROCESSING AG STRESS PERIOD DATA

 READING AG STRESS PERIOD DATA

 READING IRRIGATION WELL

 END PROCESSING AG STRESS PERIOD DATA OPTIONS
 
 SOLVING FOR HEAD 
                                                   Max.-Head-Change                         Max.-Flux-Residual
  Residual-Control   Outer-Iter.   Inner-Iter.     Column Row Layer    Maximum-Head-Change  Column Row Layer    Maximum-Flux-Residual          L2-NORM 
          0                 1           2             4    7     1      -0.5715505073E-01       4    7    1        -0.2988114787E+01      0.7093422654E+01
          0                 2           2             4    7     1       0.5559596986E-02       4    7    1         0.2988095616E+00      0.7093346436E+00
          0                 3           2             4    7     1      -0.3785882029E-03       4    7    1        -0.2091669424E-01      0.4965350340E-01
          0                 4           1             4    7     1       0.1506437755E-04       4    7    1         0.8554939070E-03      0.2030836381E-02

    ------------------------------------------------
       NWT REQUIRED            4 OUTER ITERATIONS 
       AND A TOTAL OF          7 INNER ITERATIONS.
    ------------------------------------------------

 NO OUTPUT CONTROL FOR STRESS PERIOD   31   TIME STEP    1
 
 SOLVING FOR HEAD 
                                                   Max.-Head-Change                         Max.-Flux-Residual
  Residual-Control   Outer-Iter.   Inner-Iter.     Column Row Layer    Maximum-Head-Change  Column Row Layer    Maximum-Flux-Residual          L2-NORM 
          0                 1           2             4    7     1      -0.5678098249E-01       4    7    1        -0.2969697747E+01      0.6970359768E+01
          0                 2           2             4    7     1       0.5523207973E-02       4    7    1         0.2969676929E+00      0.6970286002E+00
          0                 3           2             4    7     1      -0.3761102690E-03       4    7    1        -0.2078776492E-01      0.4879207546E-01
          0                 4           1             4    7     1       0.1496577836E-04       4    7    1         0.8502206845E-03      0.1995600695E-02

    ------------------------------------------------
       NWT REQUIRED            4 OUTER ITERATIONS 
       AND A TOTAL OF          7 INNER ITERATIONS.
    ------------------------------------------------

 NO OUTPUT CONTROL FOR STRESS PERIOD   31   TIME STEP    2
 
 SOLVING FOR HEAD 
                                                   Max.-Head-Change                         Max.-Flux-Residual
  Residual-Control   Outer-Iter.   Inner-Iter.     Column Row Layer    Maximum-Head-Change  Column Row Layer    Maximum-Flux-Residual          L2-NORM 
          0                 1           2             4    7     1      -0.5638922323E-01       4    7    1        -0.2950265239E+01      0.6853153153E+01
          0                 2           2             4    7     1       0.5485098382E-02       4    7    1         0.2950242959E+00      0.6853081744E+00
          0                 3           2             4    7     1      -0.3735151682E-03       4    7    1        -0.2065172848E-01      0.4797164368E-01
          0                 4           1             4    7     1       0.1486251661E-04       4    7    1         0.8446567872E-03      0.1962041460E-02

    ------------------------------------------------
       NWT REQUIRED            4 OUTER ITERATIONS 
       AND A TOTAL OF          7 INNER ITERATIONS.
    ------------------------------------------------

 NO OUTPUT CONTROL FOR STRESS PERIOD   31   TIME STEP    3
 
 SOLVING FOR HEAD 
                                                   Max.-Head-Change                         Max.-Flux-Residual
  Residual-Control   Outer-Iter.   Inner-Iter.     Column Row Layer    Maximum-Head-Change  Column Row Layer    Maximum-Flux-Residual          L2-NORM 
          0                 1           2             4    7     1      -0.5598142268E-01       4    7    1        -0.2929908124E+01      0.6741369443E+01
          0                 2           2             4    7     1       0.5445428666E-02       4    7    1         0.2929884555E+00      0.6741300269E+00
          0                 3           2             4    7     1      -0.3708138252E-03       4    7    1        -0.2050922079E-01      0.4718917061E-01
          0                 4           1             4    7     1       0.1475502761E-04       4    7    1         0.8388282001E-03      0.1930039399E-02

    ------------------------------------------------
       NWT REQUIRED            4 OUTER ITERATIONS 
       AND A TOTAL OF          7 INNER ITERATIONS.
    ------------------------------------------------

 NO OUTPUT CONTROL FOR STRESS PERIOD   31   TIME STEP    4
 
 SOLVING FOR HEAD 
                                                   Max.-Head-Change                         Max.-Flux-Residual
  Residual-Control   Outer-Iter.   Inner-Iter.     Column Row Layer    Maximum-Head-Change  Column Row Layer    Maximum-Flux-Residual          L2-NORM 
          0                 1           2             4    7     1      -0.5555926695E-01       4    7    1        -0.2908719282E+01      0.6634631038E+01
          0                 2           2             4    7     1       0.5404362816E-02       4    7    1         0.2908694584E+00      0.6634564134E+00
          0                 3           2             4    7     1      -0.3680174090E-03       4    7    1        -0.2036089200E-01      0.4644204419E-01
          0                 4           1             4    7     1       0.1464375587E-04       4    7    1         0.8327615526E-03      0.1899482482E-02

    ------------------------------------------------
       NWT REQUIRED            4 OUTER ITERATIONS 
       AND A TOTAL OF          7 INNER ITERATIONS.
    ------------------------------------------------

 NO OUTPUT CONTROL FOR STRESS PERIOD   31   TIME STEP    5
 
 SOLVING FOR HEAD 
                                                   Max.-Head-Change                         Max.-Flux-Residual
  Residual-Control   Outer-Iter.   Inner-Iter.     Column Row Layer    Maximum-Head-Change  Column Row Layer    Maximum-Flux-Residual          L2-NORM 
          0                 1           2             4    7     1      -0.5512420695E-01       4    7    1        -0.2886778799E+01      0.6532584519E+01
          0                 2           2             4    7     1       0.5362041950E-02       4    7    1         0.2886753121E+00      0.6532519535E+00
          0                 3           2             4    7     1      -0.3651355285E-03       4    7    1        -0.2020730262E-01      0.4572770040E-01
          0                 4           1             4    7     1       0.1452908279E-04       4    7    1         0.8264797218E-03      0.1870264365E-02

    ------------------------------------------------
       NWT REQUIRED            4 OUTER ITERATIONS 
       AND A TOTAL OF          7 INNER ITERATIONS.
    ------------------------------------------------

 NO OUTPUT CONTROL FOR STRESS PERIOD   31   TIME STEP    6
 
 SOLVING FOR HEAD 
                                                   Max.-Head-Change                         Max.-Flux-Residual
  Residual-Control   Outer-Iter.   Inner-Iter.     Column Row Layer    Maximum-Head-Change  Column Row Layer    Maximum-Flux-Residual          L2-NORM 
          0                 1           2             4    7     1      -0.5467786903E-01       4    7    1        -0.2864176581E+01      0.6434911091E+01
          0                 2           2             4    7     1       0.5318624250E-02       4    7    1         0.2864150059E+00      0.6434848038E+00
          0                 3           2             4    7     1      -0.3621789558E-03       4    7    1        -0.2004908192E-01      0.4504399806E-01
          0                 4           1             4    7     1       0.1441143804E-04       4    7    1         0.8200084892E-03      0.1842300492E-02

    ------------------------------------------------
       NWT REQUIRED            4 OUTER ITERATIONS 
       AND A TOTAL OF          7 INNER ITERATIONS.
    ------------------------------------------------

 NO OUTPUT CONTROL FOR STRESS PERIOD   31   TIME STEP    7
 
 SOLVING FOR HEAD 
                                                   Max.-Head-Change                         Max.-Flux-Residual
  Residual-Control   Outer-Iter.   Inner-Iter.     Column Row Layer    Maximum-Head-Change  Column Row Layer    Maximum-Flux-Residual          L2-NORM 
          0                 1           2             4    7     1      -0.5422164520E-01       4    7    1        -0.2840989617E+01      0.6341319901E+01
          0                 2           2             4    7     1       0.5274245103E-02       4    7    1         0.2840962374E+00      0.6341258684E+00
          0                 3           2             4    7     1      -0.3591569103E-03       4    7    1        -0.1988676873E-01      0.4438887896E-01
          0                 4           1             4    7     1       0.1429118807E-04       4    7    1         0.8133698734E-03      0.1815507738E-02

    ------------------------------------------------
       NWT REQUIRED            4 OUTER ITERATIONS 
       AND A TOTAL OF          7 INNER ITERATIONS.
    ------------------------------------------------

 NO OUTPUT CONTROL FOR STRESS PERIOD   31   TIME STEP    8
 
 SOLVING FOR HEAD 
                                                   Max.-Head-Change                         Max.-Flux-Residual
  Residual-Control   Outer-Iter.   Inner-Iter.     Column Row Layer    Maximum-Head-Change  Column Row Layer    Maximum-Flux-Residual          L2-NORM 
          0                 1           2             4    7     1      -0.5375657110E-01       4    7    1        -0.2817275411E+01      0.6251546353E+01
          0                 2           2             4    7     1       0.5229005831E-02       4    7    1         0.2817247566E+00      0.6252389276E+00
          0                 3           2             4    7     1      -0.3560762885E-03       4    7    1        -0.1972076557E-01      0.4376678587E-01
          0                 4           1             4    7     1       0.1416860710E-04       4    7    1         0.8065803258E-03      0.1790064488E-02

    ------------------------------------------------
       NWT REQUIRED            4 OUTER ITERATIONS 
       AND A TOTAL OF          7 INNER ITERATIONS.
    ------------------------------------------------

 NO OUTPUT CONTROL FOR STRESS PERIOD   31   TIME STEP    9
 
 SOLVING FOR HEAD 
                                                   Max.-Head-Change                         Max.-Flux-Residual
  Residual-Control   Outer-Iter.   Inner-Iter.     Column Row Layer    Maximum-Head-Change  Column Row Layer    Maximum-Flux-Residual          L2-NORM 
          0                 1           2             4    7     1      -0.5328412416E-01       4    7    1        -0.2793116971E+01      0.6165316292E+01
          0                 2           2             4    7     1       0.5183048946E-02       4    7    1         0.2793088626E+00      0.6165277374E+00
          0                 3           2             4    7     1      -0.3529467980E-03       4    7    1        -0.1955165340E-01      0.4315697877E-01
          0                 4           1             4    7     1       0.1404408164E-04       4    7    1         0.7996636189E-03      0.1765122460E-02

    ------------------------------------------------
       NWT REQUIRED            4 OUTER ITERATIONS 
       AND A TOTAL OF          7 INNER ITERATIONS.
    ------------------------------------------------

 NO OUTPUT CONTROL FOR STRESS PERIOD   31   TIME STEP   10
 
 SOLVING FOR HEAD 
                                                   Max.-Head-Change                         Max.-Flux-Residual
  Residual-Control   Outer-Iter.   Inner-Iter.     Column Row Layer    Maximum-Head-Change  Column Row Layer    Maximum-Flux-Residual          L2-NORM 
          0                 1           2             4    7     1      -0.5280529239E-01       4    7    1        -0.2768568961E+01      0.6081874998E+01
          0                 2           2             4    7     1       0.5136471190E-02       4    7    1         0.2768540212E+00      0.6081837902E+00
          0                 3           2             4    7     1      -0.3497750311E-03       4    7    1        -0.1937981480E-01      0.4257290228E-01
          0                 4           1             4    7     1       0.1391787427E-04       4    7    1         0.7926354181E-03      0.1741236016E-02

    ------------------------------------------------
       NWT REQUIRED            4 OUTER ITERATIONS 
       AND A TOTAL OF          7 INNER ITERATIONS.
    ------------------------------------------------

 NO OUTPUT CONTROL FOR STRESS PERIOD   31   TIME STEP   11
 
 SOLVING FOR HEAD 
                                                   Max.-Head-Change                         Max.-Flux-Residual
  Residual-Control   Outer-Iter.   Inner-Iter.     Column Row Layer    Maximum-Head-Change  Column Row Layer    Maximum-Flux-Residual          L2-NORM 
          0                 1           2             4    7     1      -0.5232099521E-01       4    7    1        -0.2743682577E+01      0.6001638325E+01
          0                 2           2             4    7     1       0.5089361825E-02       4    7    1         0.2743653512E+00      0.6001601406E+00
          0                 3           2             4    7     1      -0.3465670623E-03       4    7    1        -0.1920560813E-01      0.4201124525E-01
          0                 4           1             4    7     1       0.1379022585E-04       4    7    1         0.7855103418E-03      0.1718261552E-02

    ------------------------------------------------
       NWT REQUIRED            4 OUTER ITERATIONS 
       AND A TOTAL OF          7 INNER ITERATIONS.
    ------------------------------------------------

 NO OUTPUT CONTROL FOR STRESS PERIOD   31   TIME STEP   12
 
 SOLVING FOR HEAD 
                                                   Max.-Head-Change                         Max.-Flux-Residual
  Residual-Control   Outer-Iter.   Inner-Iter.     Column Row Layer    Maximum-Head-Change  Column Row Layer    Maximum-Flux-Residual          L2-NORM 
          0                 1           2             4    7     1      -0.5183235215E-01       4    7    1        -0.2718520164E+01      0.5924412709E+01
          0                 2           2             4    7     1       0.5041829842E-02       4    7    1         0.2718490864E+00      0.5924376055E+00
          0                 3           2             4    7     1      -0.3433303138E-03       4    7    1        -0.1902946973E-01      0.4147067076E-01
          0                 4           1             4    7     1       0.1366143284E-04       4    7    1         0.7783062747E-03      0.1696155816E-02

    ------------------------------------------------
       NWT REQUIRED            4 OUTER ITERATIONS 
       AND A TOTAL OF          7 INNER ITERATIONS.
    ------------------------------------------------

 NO OUTPUT CONTROL FOR STRESS PERIOD   31   TIME STEP   13
 
 SOLVING FOR HEAD 
                                                   Max.-Head-Change                         Max.-Flux-Residual
  Residual-Control   Outer-Iter.   Inner-Iter.     Column Row Layer    Maximum-Head-Change  Column Row Layer    Maximum-Flux-Residual          L2-NORM 
          0                 1           2             4    7     1      -0.5134027439E-01       4    7    1        -0.2693132432E+01      0.5850011970E+01
          0                 2           2             4    7     1       0.4993963863E-02       4    7    1         0.2693102968E+00      0.5849975660E+00
          0                 3           2             4    7     1      -0.3400708205E-03       4    7    1        -0.1885175455E-01      0.4094986520E-01
          0                 4           1             4    7     1       0.1353173423E-04       4    7    1         0.7710377104E-03      0.1674852679E-02

    ------------------------------------------------
       NWT REQUIRED            4 OUTER ITERATIONS 
       AND A TOTAL OF          7 INNER ITERATIONS.
    ------------------------------------------------

 NO OUTPUT CONTROL FOR STRESS PERIOD   31   TIME STEP   14
 
 SOLVING FOR HEAD 
                                                   Max.-Head-Change                         Max.-Flux-Residual
  Residual-Control   Outer-Iter.   Inner-Iter.     Column Row Layer    Maximum-Head-Change  Column Row Layer    Maximum-Flux-Residual          L2-NORM 
          0                 1           2             4    7     1      -0.5084561052E-01       4    7    1        -0.2667566624E+01      0.5778280272E+01
          0                 2           2             4    7     1       0.4945846425E-02       4    7    1         0.2667537064E+00      0.5778244293E+00
          0                 3           2             4    7     1      -0.3367942024E-03       4    7    1        -0.1867279322E-01      0.4044774656E-01
          0                 4           1             4    7     1       0.1340135441E-04       4    7    1         0.7637181716E-03      0.1654318563E-02

    ------------------------------------------------
       NWT REQUIRED            4 OUTER ITERATIONS 
       AND A TOTAL OF          7 INNER ITERATIONS.
    ------------------------------------------------

 NO OUTPUT CONTROL FOR STRESS PERIOD   31   TIME STEP   15
 
 SOLVING FOR HEAD 
                                                   Max.-Head-Change                         Max.-Flux-Residual
  Residual-Control   Outer-Iter.   Inner-Iter.     Column Row Layer    Maximum-Head-Change  Column Row Layer    Maximum-Flux-Residual          L2-NORM 
          0                 1           2             4    7     1      -0.5034914479E-01       4    7    1        -0.2641866740E+01      0.5709058876E+01
          0                 2           2             4    7     1       0.4897553804E-02       4    7    1         0.2641837143E+00      0.5709023294E+00
          0                 3           2             4    7     1      -0.3335056547E-03       4    7    1        -0.1849289374E-01      0.3996319522E-01
          0                 4           1             4    7     1       0.1327050049E-04       4    7    1         0.7563602906E-03      0.1634492735E-02

    ------------------------------------------------
       NWT REQUIRED            4 OUTER ITERATIONS 
       AND A TOTAL OF          7 INNER ITERATIONS.
    ------------------------------------------------

 NO OUTPUT CONTROL FOR STRESS PERIOD   31   TIME STEP   16
 
 SOLVING FOR HEAD 
                                                   Max.-Head-Change                         Max.-Flux-Residual
  Residual-Control   Outer-Iter.   Inner-Iter.     Column Row Layer    Maximum-Head-Change  Column Row Layer    Maximum-Flux-Residual          L2-NORM 
          0                 1           2             4    7     1      -0.4985133553E-01       4    7    1        -0.2616058787E+01      0.5642208783E+01
          0                 2           2             4    7     1       0.4849130575E-02       4    7    1         0.2616029209E+00      0.5642173621E+00
          0                 3           2             4    7     1      -0.3302082122E-03       4    7    1        -0.1831223812E-01      0.3949524973E-01
          0                 4           1             4    7     1       0.1313929233E-04       4    7    1         0.7489714694E-03      0.1615357546E-02

    ------------------------------------------------
       NWT REQUIRED            4 OUTER ITERATIONS 
       AND A TOTAL OF          7 INNER ITERATIONS.
    ------------------------------------------------

 NO OUTPUT CONTROL FOR STRESS PERIOD   31   TIME STEP   17
 
 SOLVING FOR HEAD 
                                                   Max.-Head-Change                         Max.-Flux-Residual
  Residual-Control   Outer-Iter.   Inner-Iter.     Column Row Layer    Maximum-Head-Change  Column Row Layer    Maximum-Flux-Residual          L2-NORM 
          0                 1           2             4    7     1      -0.4935327011E-01       4    7    1        -0.2590203170E+01      0.5577600643E+01
          0                 2           2             4    7     1       0.4800682500E-02       4    7    1         0.2590173659E+00      0.5577565899E+00
          0                 3           2             4    7     1      -0.3269090766E-03       4    7    1        -0.1813124912E-01      0.3904299435E-01
          0                 4           1             4    7     1       0.1300801624E-04       4    7    1         0.7415690004E-03      0.1596859916E-02

    ------------------------------------------------
       NWT REQUIRED            4 OUTER ITERATIONS 
       AND A TOTAL OF          7 INNER ITERATIONS.
    ------------------------------------------------

 NO OUTPUT CONTROL FOR STRESS PERIOD   31   TIME STEP   18
 
 SOLVING FOR HEAD 
                                                   Max.-Head-Change                         Max.-Flux-Residual
  Residual-Control   Outer-Iter.   Inner-Iter.     Column Row Layer    Maximum-Head-Change  Column Row Layer    Maximum-Flux-Residual          L2-NORM 
          0                 1           2             4    7     1      -0.4885529231E-01       4    7    1        -0.2564319630E+01      0.5515121021E+01
          0                 2           2             4    7     1       0.4752243013E-02       4    7    1         0.2564290231E+00      0.5515086755E+00
          0                 3           2             4    7     1      -0.3236105250E-03       4    7    1        -0.1795006492E-01      0.3860564128E-01
          0                 4           1             4    7     1       0.1287676387E-04       4    7    1         0.7341585492E-03      0.1578972829E-02

    ------------------------------------------------
       NWT REQUIRED            4 OUTER ITERATIONS 
       AND A TOTAL OF          7 INNER ITERATIONS.
    ------------------------------------------------

 NO OUTPUT CONTROL FOR STRESS PERIOD   31   TIME STEP   19
 
 SOLVING FOR HEAD 
                                                   Max.-Head-Change                         Max.-Flux-Residual
  Residual-Control   Outer-Iter.   Inner-Iter.     Column Row Layer    Maximum-Head-Change  Column Row Layer    Maximum-Flux-Residual          L2-NORM 
          0                 1           2             4    7     1      -0.4835811239E-01       4    7    1        -0.2538447973E+01      0.5454654170E+01
          0                 2           2             4    7     1       0.4703881196E-02       4    7    1         0.2538418725E+00      0.5454620364E+00
          0                 3           2             4    7     1      -0.3203172626E-03       4    7    1        -0.1776896416E-01      0.3818237568E-01
          0                 4           1             4    7     1       0.1274572230E-04       4    7    1         0.7267515364E-03      0.1561662111E-02

    ------------------------------------------------
       NWT REQUIRED            4 OUTER ITERATIONS 
       AND A TOTAL OF          7 INNER ITERATIONS.
    ------------------------------------------------

 NO OUTPUT CONTROL FOR STRESS PERIOD   31   TIME STEP   20
 
 SOLVING FOR HEAD 
                                                   Max.-Head-Change                         Max.-Flux-Residual
  Residual-Control   Outer-Iter.   Inner-Iter.     Column Row Layer    Maximum-Head-Change  Column Row Layer    Maximum-Flux-Residual          L2-NORM 
          0                 1           2             4    7     1      -0.4786212379E-01       4    7    1        -0.2512610374E+01      0.5396105053E+01
          0                 2           2             4    7     1       0.4655635315E-02       4    7    1         0.2512581313E+00      0.5396071709E+00
          0                 3           2             4    7     1      -0.3170318943E-03       4    7    1        -0.1758810203E-01      0.3777253868E-01
          0                 4           1             4    7     1       0.1261499433E-04       4    7    1         0.7193542683E-03      0.1544904742E-02

    ------------------------------------------------
       NWT REQUIRED            4 OUTER ITERATIONS 
       AND A TOTAL OF          7 INNER ITERATIONS.
    ------------------------------------------------

 NO OUTPUT CONTROL FOR STRESS PERIOD   31   TIME STEP   21
 
 SOLVING FOR HEAD 
                                                   Max.-Head-Change                         Max.-Flux-Residual
  Residual-Control   Outer-Iter.   Inner-Iter.     Column Row Layer    Maximum-Head-Change  Column Row Layer    Maximum-Flux-Residual          L2-NORM 
          0                 1           2             4    7     1      -0.4736794621E-01       4    7    1        -0.2486841883E+01      0.5339372803E+01
          0                 2           2             4    7     1       0.4607565643E-02       4    7    1         0.2486813041E+00      0.5339339950E+00
          0                 3           2             4    7     1      -0.3137585246E-03       4    7    1        -0.1740772384E-01      0.3737541040E-01
          0                 4           1             4    7     1       0.1248474380E-04       4    7    1         0.7119767924E-03      0.1528664973E-02

    ------------------------------------------------
       NWT REQUIRED            4 OUTER ITERATIONS 
       AND A TOTAL OF          7 INNER ITERATIONS.
    ------------------------------------------------

 NO OUTPUT CONTROL FOR STRESS PERIOD   31   TIME STEP   22
 
 SOLVING FOR HEAD 
                                                   Max.-Head-Change                         Max.-Flux-Residual
  Residual-Control   Outer-Iter.   Inner-Iter.     Column Row Layer    Maximum-Head-Change  Column Row Layer    Maximum-Flux-Residual          L2-NORM 
          0                 1           2             4    7     1      -0.4687587866E-01       4    7    1        -0.2461159983E+01      0.5284356706E+01
          0                 2           2             4    7     1       0.4559701260E-02       4    7    1         0.2461131386E+00      0.5284324348E+00
          0                 3           2             4    7     1      -0.3104991338E-03       4    7    1        -0.1722795195E-01      0.3699030134E-01
          0                 4           1             4    7     1       0.1235504968E-04       4    7    1         0.7046241051E-03      0.1512904527E-02

    ------------------------------------------------
       NWT REQUIRED            4 OUTER ITERATIONS 
       AND A TOTAL OF          7 INNER ITERATIONS.
    ------------------------------------------------

 NO OUTPUT CONTROL FOR STRESS PERIOD   31   TIME STEP   23
 
 SOLVING FOR HEAD 
                                                   Max.-Head-Change                         Max.-Flux-Residual
  Residual-Control   Outer-Iter.   Inner-Iter.     Column Row Layer    Maximum-Head-Change  Column Row Layer    Maximum-Flux-Residual          L2-NORM 
          0                 1           2             4    7     1      -0.4638659992E-01       4    7    1        -0.2435602146E+01      0.5231004489E+01
          0                 2           2             4    7     1       0.4512108188E-02       4    7    1         0.2435573820E+00      0.5230971616E+00
          0                 3           2             4    7     1      -0.3072582179E-03       4    7    1        -0.1704904865E-01      0.3661673593E-01
          0                 4           1             4    7     1       0.1222609042E-04       4    7    1         0.6973069410E-03      0.1497627394E-02

    ------------------------------------------------
       NWT REQUIRED            4 OUTER ITERATIONS 
       AND A TOTAL OF          7 INNER ITERATIONS.
    ------------------------------------------------

 NO OUTPUT CONTROL FOR STRESS PERIOD   31   TIME STEP   24
 
 SOLVING FOR HEAD 
                                                   Max.-Head-Change                         Max.-Flux-Residual
  Residual-Control   Outer-Iter.   Inner-Iter.     Column Row Layer    Maximum-Head-Change  Column Row Layer    Maximum-Flux-Residual          L2-NORM 
          0                 1           2             4    7     1      -0.4590006451E-01       4    7    1        -0.2410166954E+01      0.5179213207E+01
          0                 2           2             4    7     1       0.4464782001E-02       4    7    1         0.2410138922E+00      0.5179181809E+00
          0                 3           2             4    7     1      -0.3040354759E-03       4    7    1        -0.1687100401E-01      0.3625430184E-01
          0                 4           1             4    7     1       0.1209785473E-04       4    7    1         0.6900249205E-03      0.1482803682E-02

    ------------------------------------------------
       NWT REQUIRED            4 OUTER ITERATIONS 
       AND A TOTAL OF          7 INNER ITERATIONS.
    ------------------------------------------------

 NO OUTPUT CONTROL FOR STRESS PERIOD   31   TIME STEP   25
 
 SOLVING FOR HEAD 
                                                   Max.-Head-Change                         Max.-Flux-Residual
  Residual-Control   Outer-Iter.   Inner-Iter.     Column Row Layer    Maximum-Head-Change  Column Row Layer    Maximum-Flux-Residual          L2-NORM 
          0                 1           2             4    7     1      -0.4541701818E-01       4    7    1        -0.2384895982E+01      0.5128924954E+01
          0                 2           2             4    7     1       0.4417795231E-02       4    7    1         0.2384868261E+00      0.5128894091E+00
          0                 3           2             4    7     1      -0.3008358464E-03       4    7    1        -0.1669410901E-01      0.3590228900E-01
          0                 4           1             4    7     1       0.1197053858E-04       4    7    1         0.6827898997E-03      0.1468404289E-02

    ------------------------------------------------
       NWT REQUIRED            4 OUTER ITERATIONS 
       AND A TOTAL OF          7 INNER ITERATIONS.
    ------------------------------------------------

 NO OUTPUT CONTROL FOR STRESS PERIOD   31   TIME STEP   26
 
 SOLVING FOR HEAD 
                                                   Max.-Head-Change                         Max.-Flux-Residual
  Residual-Control   Outer-Iter.   Inner-Iter.     Column Row Layer    Maximum-Head-Change  Column Row Layer    Maximum-Flux-Residual          L2-NORM 
          0                 1           2             4    7     1      -0.4493761628E-01       4    7    1        -0.2359798608E+01      0.5080074595E+01
          0                 2           2             4    7     1       0.4371162989E-02       4    7    1         0.2359771215E+00      0.5080044231E+00
          0                 3           2             4    7     1      -0.2976603589E-03       4    7    1        -0.1651842930E-01      0.3556033645E-01
          0                 4           1             4    7     1       0.1184418270E-04       4    7    1         0.6756045943E-03      0.1454418710E-02

    ------------------------------------------------
       NWT REQUIRED            4 OUTER ITERATIONS 
       AND A TOTAL OF          7 INNER ITERATIONS.
    ------------------------------------------------

 NO OUTPUT CONTROL FOR STRESS PERIOD   31   TIME STEP   27
 
 SOLVING FOR HEAD 
                                                   Max.-Head-Change                         Max.-Flux-Residual
  Residual-Control   Outer-Iter.   Inner-Iter.     Column Row Layer    Maximum-Head-Change  Column Row Layer    Maximum-Flux-Residual          L2-NORM 
          0                 1           2             4    7     1      -0.4446199398E-01       4    7    1        -0.2334882889E+01      0.5032587088E+01
          0                 2           2             4    7     1       0.4324898420E-02       4    7    1         0.2334855837E+00      0.5032557209E+00
          0                 3           2             4    7     1      -0.2945099082E-03       4    7    1        -0.1634402127E-01      0.3522793131E-01
          0                 4           1             4    7     1       0.1171882313E-04       4    7    1         0.6684712860E-03      0.1440843122E-02

    ------------------------------------------------
       NWT REQUIRED            4 OUTER ITERATIONS 
       AND A TOTAL OF          7 INNER ITERATIONS.
    ------------------------------------------------

 NO OUTPUT CONTROL FOR STRESS PERIOD   31   TIME STEP   28
 
 SOLVING FOR HEAD 
                                                   Max.-Head-Change                         Max.-Flux-Residual
  Residual-Control   Outer-Iter.   Inner-Iter.     Column Row Layer    Maximum-Head-Change  Column Row Layer    Maximum-Flux-Residual          L2-NORM 
          0                 1           2             4    7     1      -0.4399053146E-01       4    7    1        -0.2310170474E+01      0.4986412195E+01
          0                 2           2             4    7     1       0.4279038501E-02       4    7    1         0.2310143776E+00      0.4986382787E+00
          0                 3           2             4    7     1      -0.2913870123E-03       4    7    1        -0.1617103641E-01      0.3490470846E-01
          0                 4           1             4    7     1       0.1159456038E-04       4    7    1         0.6613962014E-03      0.1427604747E-02

    ------------------------------------------------
       NWT REQUIRED            4 OUTER ITERATIONS 
       AND A TOTAL OF          7 INNER ITERATIONS.
    ------------------------------------------------

 NO OUTPUT CONTROL FOR STRESS PERIOD   31   TIME STEP   29
 
 SOLVING FOR HEAD 
                                                   Max.-Head-Change                         Max.-Flux-Residual
  Residual-Control   Outer-Iter.   Inner-Iter.     Column Row Layer    Maximum-Head-Change  Column Row Layer    Maximum-Flux-Residual          L2-NORM 
          0                 1           2             4    7     1      -0.4352344277E-01       4    7    1        -0.2285673755E+01      0.4941493318E+01
          0                 2           2             4    7     1       0.4233604051E-02       4    7    1         0.2285647421E+00      0.4941464398E+00
          0                 3           2             4    7     1      -0.2882930897E-03       4    7    1        -0.1599956152E-01      0.3459027567E-01
          0                 4           1             4    7     1       0.1147145076E-04       4    7    1         0.6543828788E-03      0.1414748163E-02

    ------------------------------------------------
       NWT REQUIRED            4 OUTER ITERATIONS 
       AND A TOTAL OF          7 INNER ITERATIONS.
    ------------------------------------------------

 NO OUTPUT CONTROL FOR STRESS PERIOD   31   TIME STEP   30



 STREAM LISTING     PERIOD     31   STEP       30

 LAYER ROW COL. STREAM  RCH.  FLOW INTO     FLOW TO   FLOW OUT OF   OVRLND.     DIRECT     STREAM       STREAM     STREAM     STREAM   STREAMBED  STREAMBED
                SEG.NO.  NO.  STRM. RCH.    AQUIFER    STRM. RCH.    RUNOFF     PRECIP       ET          HEAD       DEPTH      WIDTH   CONDCTNC.   GRADIENT

   1    1    1     1     1    1.9000E+01  2.1427E-01   1.8786E+01  0.000E+00  0.000E+00  0.000E+00  1.09413E+03  1.082E+00  1.166E+01  5.249E-02  1.361E+00
   1    2    2     1     2    1.8786E+01  3.3054E-01   1.8455E+01  0.000E+00  0.000E+00  0.000E+00  1.08914E+03  1.077E+00  1.158E+01  8.107E-02  1.359E+00
   1    3    3     1     3    1.8455E+01  2.8064E-01   1.8175E+01  0.000E+00  0.000E+00  0.000E+00  1.08349E+03  1.072E+00  1.149E+01  6.892E-02  1.357E+00
   1    3    4     1     4    1.8175E+01  2.5740E-01   1.7917E+01  0.000E+00  0.000E+00  0.000E+00  1.07848E+03  1.068E+00  1.140E+01  6.328E-02  1.356E+00
   1    4    5     2     1    1.5917E+01  3.0542E-01   1.5612E+01  0.000E+00  0.000E+00  0.000E+00  1.07285E+03  9.157E-01  1.200E+01  7.800E-02  1.305E+00
   1    5    6     2     2    1.5612E+01  2.3438E-01   1.5377E+01  0.000E+00  0.000E+00  0.000E+00  1.06742E+03  9.063E-01  1.200E+01  6.000E-02  1.302E+00
   1    6    6     2     3    1.5377E+01  2.3388E-01   1.5143E+01  0.000E+00  0.000E+00  0.000E+00  1.06269E+03  8.980E-01  1.200E+01  6.000E-02  1.299E+00
   1    7    6     2     4    1.5143E+01  2.3338E-01   1.4910E+01  0.000E+00  0.000E+00  0.000E+00  1.05797E+03  8.897E-01  1.200E+01  6.000E-02  1.297E+00
   1    8    6     2     5    1.4910E+01  2.3289E-01   1.4677E+01  0.000E+00  0.000E+00  0.000E+00  1.05324E+03  8.814E-01  1.200E+01  6.000E-02  1.294E+00
   1    3    5     3     1    2.0000E+00  2.8252E-01   1.7175E+00  0.000E+00  0.000E+00  0.000E+00  1.07555E+03  1.909E+00  9.636E+00  7.227E-02  1.955E+00
   1    3    6     3     2    1.7175E+00  2.4905E-01   1.4684E+00  0.000E+00  0.000E+00  0.000E+00  1.07264E+03  1.727E+00  8.909E+00  6.682E-02  1.864E+00
   1    3    7     3     3    1.4684E+00  1.9718E-01   1.2712E+00  0.000E+00  0.000E+00  0.000E+00  1.06987E+03  1.555E+00  8.218E+00  5.547E-02  1.777E+00
   1    4    8     3     4    1.2712E+00  2.2567E-01   1.0456E+00  0.000E+00  0.000E+00  0.000E+00  1.06682E+03  1.364E+00  7.455E+00  6.709E-02  1.682E+00
   1    5    8     3     5    1.0456E+00  1.5790E-01   8.8768E-01  0.000E+00  0.000E+00  0.000E+00  1.06362E+03  1.164E+00  6.655E+00  4.991E-02  1.582E+00
   1    6    8     3     6    8.8768E-01  5.5980E-02   8.3170E-01  0.000E+00  0.000E+00  0.000E+00  1.06158E+03  1.036E+00  6.145E+00  1.844E-02  1.518E+00
   1    5   10     4     1    1.0000E+01  9.0919E-02   9.9091E+00  0.000E+00  0.000E+00  0.000E+00  1.07836E+03  6.368E-01  1.000E+01  2.500E-02  1.212E+00
   1    5    9     4     2    9.9091E+00  1.8158E-01   9.7275E+00  0.000E+00  0.000E+00  0.000E+00  1.07154E+03  6.315E-01  1.000E+01  5.000E-02  1.211E+00
   1    6    8     4     3    9.7275E+00  1.2689E-01   9.6006E+00  0.000E+00  0.000E+00  0.000E+00  1.06381E+03  6.256E-01  1.000E+01  3.500E-02  1.209E+00
   1    6    8     5     1    1.0432E+01  2.2686E-01   1.0205E+01  0.000E+00  0.000E+00  0.000E+00  1.05868E+03  6.790E-01  1.542E+01  6.166E-02  1.226E+00
   1    7    7     5     2    1.0205E+01  2.7894E-01   9.9265E+00  0.000E+00  0.000E+00  0.000E+00  1.05417E+03  6.732E-01  1.519E+01  7.594E-02  1.224E+00
   1    8    7     5     3    9.9265E+00  1.9221E-01   9.7343E+00  0.000E+00  0.000E+00  0.000E+00  1.04992E+03  6.676E-01  1.497E+01  5.241E-02  1.223E+00
   1    8    6     5     4    9.7343E+00  1.3577E-01   9.5985E+00  0.000E+00  0.000E+00  0.000E+00  1.04691E+03  6.637E-01  1.482E+01  3.706E-02  1.221E+00
   1    9    6     6     1    2.4276E+01  2.5176E-01   2.4024E+01  0.000E+00  0.000E+00  0.000E+00  1.04392E+03  1.196E+00  1.200E+01  6.000E-02  1.399E+00
   1   10    7     6     2    2.4024E+01  2.5131E-01   2.3773E+01  0.000E+00  0.000E+00  0.000E+00  1.03937E+03  1.188E+00  1.200E+01  6.000E-02  1.396E+00
   1   11    7     6     3    2.3773E+01  2.5086E-01   2.3522E+01  0.000E+00  0.000E+00  0.000E+00  1.03482E+03  1.181E+00  1.200E+01  6.000E-02  1.394E+00
   1   12    7     6     4    2.3522E+01  2.5041E-01   2.3271E+01  0.000E+00  0.000E+00  0.000E+00  1.03026E+03  1.173E+00  1.200E+01  6.000E-02  1.391E+00
   1   13    7     6     5    2.3271E+01  6.2660E-03   2.3265E+01  0.000E+00  0.000E+00  0.000E+00  1.02708E+03  1.170E+00  1.200E+01  2.400E-02  8.703E-02
   1   14    9     7     1    1.5000E+02  1.3476E+00   1.4865E+02  0.000E+00  0.000E+00  0.000E+00  1.03987E+03  2.288E+00  5.529E+01  5.593E-01  8.032E-01
   1   13    8     7     2    1.4865E+02  1.9026E+00   1.4675E+02  0.000E+00  0.000E+00  0.000E+00  1.03478E+03  2.279E+00  5.526E+01  6.148E-01  1.032E+00
   1   13    7     7     3    1.4675E+02  1.6035E+00   1.4515E+02  0.000E+00  0.000E+00  0.000E+00  1.02969E+03  2.270E+00  5.521E+01  5.584E-01  9.572E-01
   1   13    6     8     1    1.6841E+02  1.0455E+00   1.6737E+02  0.000E+00  0.000E+00  0.000E+00  1.02481E+03  2.938E+00  4.261E+01  4.342E-01  8.027E-01
   1   13    5     8     2    1.6737E+02  2.9183E-01   1.6707E+02  0.000E+00  0.000E+00  0.000E+00  1.01856E+03  2.934E+00  4.254E+01  4.335E-01  2.244E-01
   1   13    4     8     3    1.6707E+02 -2.0477E+00   1.6912E+02  0.000E+00  0.000E+00  0.000E+00  1.01231E+03  2.940E+00  4.263E+01  4.344E+00 -1.571E-01
   1   13    3     8     4    1.6912E+02 -3.4580E+00   1.7258E+02  0.000E+00  0.000E+00  0.000E+00  1.00608E+03  2.958E+00  4.289E+01  4.370E+00 -2.637E-01
   1   13    2     8     5    1.7258E+02 -2.5321E+00   1.7511E+02  0.000E+00  0.000E+00  0.000E+00  9.99852E+02  2.977E+00  4.317E+01  4.399E+00 -1.919E-01
   1   13    1     8     6    1.7511E+02 -1.9719E+00   1.7708E+02  0.000E+00  0.000E+00  0.000E+00  9.94866E+02  2.991E+00  4.338E+01  2.652E+00 -2.478E-01





UNSATURATED ZONE PACKAGE VOLUMETRIC BUDGET FOR  TIME STEP    30 STRESS PERIOD   31
  ------------------------------------------------------------------------------



     CUMULATIVE VOLUMES      L**3       RATES FOR THIS TIME STEP      L**3/T
     ------------------                 ------------------------

           IN:                                      IN:
           ---                                      ---
        INFILTRATION =  1025551385.7762          INFILTRATION =          23.3175

          OUT:                                     OUT:
          ----                                     ----
              UZF ET =   949623801.3102                UZF ET =          23.3175
        UZF RECHARGE =    75855283.4546          UZF RECHARGE =       0.0000E+00

            IN - OUT =       72301.0114              IN - OUT =       0.0000E+00

          STORAGE:                                 STORAGE:
          --------                                 --------
      STORAGE CHANGE =       72305.0228        STORAGE CHANGE =       8.5241E-15

 PERCENT DISCREPANCY IS DIFFERENCE BETWEEN IN-OUT MINUS CHANGE IN STORAGE
 DIVIDED BY THE AVERAGE OF IN AND OUT TIMES 100

 PERCENT DISCREPANCY =           0.00     PERCENT DISCREPANCY =           0.00






1
  VOLUMETRIC BUDGET FOR AGRICULTURAL FIELDS AT  END OF TIME STEP   30, STRESS PERIOD  31
  ------------------------------------------------------------------------------

     CUMULATIVE VOLUMES      L**3       RATES FOR THIS TIME STEP      L**3/T
     ------------------                 ------------------------

           IN:                                      IN:
           ---                                      ---
               AG WELLS  =   958608768.0000                 AG WELLS  =          22.4700
      DIVERSION SEGMENTS =           0.0000        DIVERSION SEGMENTS =           0.0000
           GW IRRIGATION =           0.0000             GW IRRIGATION =           0.0000
           SW IRRIGATION =           0.0000             SW IRRIGATION =           0.0000
        SYSTEM LOSSES GW =           0.0000          SYSTEM LOSSES GW =           0.0000
        SYSTEM LOSSES SW =           0.0000          SYSTEM LOSSES SW =           0.0000

                TOTAL IN =   958608768.0000                  TOTAL IN =          22.4700

          OUT:                                     OUT:
          ----                                     ----
               AG WELLS  =           0.0000                 AG WELLS  =           0.0000
      DIVERSION SEGMENTS =           0.0000        DIVERSION SEGMENTS =           0.0000
           GW IRRIGATION =   958608768.0000             GW IRRIGATION =          22.4700
           SW IRRIGATION =           0.0000             SW IRRIGATION =           0.0000
        SYSTEM LOSSES GW =           0.0000          SYSTEM LOSSES GW =           0.0000
        SYSTEM LOSSES SW =           0.0000          SYSTEM LOSSES SW =           0.0000

               TOTAL OUT =   958608768.0000                 TOTAL OUT =          22.4700

                IN - OUT =           0.0000                  IN - OUT =           0.0000

     PERCENT DISCREPANCY =           0.00         PERCENT DISCREPANCY =           0.00



1
  VOLUMETRIC BUDGET FOR ENTIRE MODEL AT END OF TIME STEP   30, STRESS PERIOD  31
  ------------------------------------------------------------------------------

     CUMULATIVE VOLUMES      L**3       RATES FOR THIS TIME STEP      L**3/T
     ------------------                 ------------------------

           IN:                                      IN:
           ---                                      ---
             STORAGE     =  1272020096.0000               STORAGE     =          20.6331
       CONSTANT HEAD     =           0.0000         CONSTANT HEAD     =           0.0000
     HEAD DEP BOUNDS     =    22560266.0000       HEAD DEP BOUNDS     =           0.2866
      STREAM LEAKAGE     =   971318400.0000        STREAM LEAKAGE     =          11.9259
        UZF RECHARGE     =    75855336.0000          UZF RECHARGE     =           0.0000
               GW ET     =           0.0000                 GW ET     =           0.0000
     SURFACE LEAKAGE     =           0.0000       SURFACE LEAKAGE     =           0.0000
           AG WELLS      =           0.0000             AG WELLS      =           0.0000

                TOTAL IN =  2341754112.0000                  TOTAL IN =          32.8455

          OUT:                                     OUT:
          ----                                     ----
             STORAGE     =   527227872.0000               STORAGE     =       7.6724E-02
       CONSTANT HEAD     =           0.0000         CONSTANT HEAD     =           0.0000
     HEAD DEP BOUNDS     =    23151088.0000       HEAD DEP BOUNDS     =           0.2892
      STREAM LEAKAGE     =   815149632.0000        STREAM LEAKAGE     =          10.0097
        UZF RECHARGE     =           0.0000          UZF RECHARGE     =           0.0000
               GW ET     =    17607600.0000                 GW ET     =           0.0000
     SURFACE LEAKAGE     =           0.0000       SURFACE LEAKAGE     =           0.0000
           AG WELLS      =   958608768.0000             AG WELLS      =          22.4700

               TOTAL OUT =  2341744896.0000                 TOTAL OUT =          32.8456

                IN - OUT =        9216.0000                  IN - OUT =      -6.8665E-05

     PERCENT DISCREPANCY =           0.00         PERCENT DISCREPANCY =          -0.00






         TIME SUMMARY AT END OF TIME STEP   30 IN STRESS PERIOD   31
                    SECONDS     MINUTES      HOURS       DAYS        YEARS
                    -----------------------------------------------------------
   TIME STEP LENGTH  87667.      1461.1      24.352      1.0147     2.77799E-03
 STRESS PERIOD TIME 2.63000E+06  43833.      730.56      30.440     8.33397E-02
         TOTAL TIME 7.89864E+07 1.31644E+06  21941.      914.20      2.5029    
1
1
                            STRESS PERIOD NO.   32, LENGTH =   2630000.    
                            -----------------------------------------------

                              NUMBER OF TIME STEPS =    30

                               MULTIPLIER FOR DELT =     1.000

                            INITIAL TIME STEP SIZE =   87666.66    

 REUSING NON-PARAMETER GHB CELLS FROM LAST STRESS PERIOD

      2 GHB CELLS

 REUSING STREAM SEGMENT DATA FROM LAST STRESS PERIOD



            AREAL INFILTRATION RATE
 READING ON UNIT   19 WITH FORMAT: (FREE)              

            1           2           3           4           5           6           7           8           9          10
 ........................................................................................................................
   1   1.0000E-10  2.0000E-10   0.000       0.000       0.000       0.000       0.000       0.000       0.000       0.000    
   2   2.0000E-10  1.0000E-10  2.0000E-10   0.000       0.000      8.0000E-10  8.0000E-10  5.0000E-10   0.000       0.000    
   3    0.000      5.0000E-10  1.0000E-10  1.0000E-10  8.0000E-10  8.0000E-10  5.0000E-10  5.0000E-10   0.000       0.000    
   4   8.0000E-10  5.0000E-10  1.0000E-10  1.0000E-10  1.0000E-10  1.0000E-10  1.0000E-10  1.0000E-10  2.0000E-10   0.000    
   5   8.0000E-10  5.0000E-10  1.0000E-10  1.0000E-10  1.0000E-10  1.0000E-10  1.0000E-10  1.0000E-10  1.0000E-10  1.0000E-10
   6   8.0000E-10  5.0000E-10  5.0000E-10  2.0000E-10  2.0000E-10  1.0000E-10  1.0000E-10  1.0000E-10  1.0000E-10  5.0000E-10
   7   8.0000E-10  5.0000E-10  5.0000E-10  2.0000E-10  2.0000E-10  1.0000E-10  1.0000E-10  2.0000E-10  2.0000E-10   0.000    
   8    0.000      5.0000E-10  5.0000E-10  2.0000E-10  2.0000E-10  1.0000E-10  1.0000E-10  2.0000E-10  5.0000E-10   0.000    
   9    0.000      5.0000E-10  5.0000E-10  2.0000E-10  2.0000E-10  1.0000E-10  1.0000E-10  2.0000E-10  5.0000E-10   0.000    
  10    0.000      5.0000E-10  5.0000E-10  2.0000E-10  2.0000E-10  1.0000E-10  1.0000E-10  2.0000E-10  5.0000E-10  8.0000E-10
  11    0.000      1.0000E-10  1.0000E-10  1.0000E-10  1.0000E-10  1.0000E-10  1.0000E-10  2.0000E-10  5.0000E-10   0.000    
  12   1.0000E-10  1.0000E-10  1.0000E-10  1.0000E-10  1.0000E-10  1.0000E-10  1.0000E-10  1.0000E-10  2.0000E-10   0.000    
  13   1.0000E-10  1.0000E-10  2.0000E-10  2.0000E-10  2.0000E-10  2.0000E-10  2.0000E-10  1.0000E-10  1.0000E-10   0.000    
  14    0.000      2.0000E-10  5.0000E-10  5.0000E-10  5.0000E-10  5.0000E-10  5.0000E-10  2.0000E-10  1.0000E-10   0.000    
  15    0.000       0.000      8.0000E-10  8.0000E-10  8.0000E-10  8.0000E-10   0.000       0.000       0.000       0.000    

                  ET RATE =  4.000000E-07

 USING ET EXTINCTION DEPTH FROM PREVIOUS STRESS PERIOD. CURRENT PERIOD IS:      32

 USING EXTINCTION WATER CONTENT FROM PREVIOUS STRESS PERIOD. CURRENT PERIOD IS:      32

 USING AIR ENTRY PRESSURE FROM PREVIOUS STRESS PERIOD. CURRENT PERIOD IS:      32

 USING ROOT PRESSURE HEAD FROM PREVIOUS STRESS PERIOD. CURRENT PERIOD IS:      32

 USING ROOT ACTIVITY FROM PREVIOUS STRESS PERIOD. CURRENT PERIOD IS:      32

 PROCESSING AG STRESS PERIOD DATA

 READING AG STRESS PERIOD DATA

 READING IRRIGATION WELL

 END PROCESSING AG STRESS PERIOD DATA OPTIONS
 
 SOLVING FOR HEAD 
                                                   Max.-Head-Change                         Max.-Flux-Residual
  Residual-Control   Outer-Iter.   Inner-Iter.     Column Row Layer    Maximum-Head-Change  Column Row Layer    Maximum-Flux-Residual          L2-NORM 
          0                 1           2             4    7     1      -0.1627751568E+00       4    7    1        -0.8511410909E+01      0.1993375579E+02
          0                 2           2             6    7     1       0.1250342456E-02       6    7    1         0.6864764696E-01      0.1843758111E+00
          0                 3           2             5    6     1      -0.1203612645E-01       4    7    1        -0.6485740680E+00      0.1581273654E+01
          0                 4           2             4    7     1      -0.9016013520E-02       5    7    1        -0.4987372889E+00      0.1188542492E+01
          0                 5           2             5    6     1       0.8360119143E-03       5    6    1         0.4680082139E-01      0.7727703109E-01
          0                 6           1             5    6     1      -0.5692935151E-04       5    6    1        -0.3314417366E-02      0.4706354797E-02

    ------------------------------------------------
       NWT REQUIRED            6 OUTER ITERATIONS 
       AND A TOTAL OF         11 INNER ITERATIONS.
    ------------------------------------------------

 NO OUTPUT CONTROL FOR STRESS PERIOD   32   TIME STEP    1
 
 SOLVING FOR HEAD 
                                                   Max.-Head-Change                         Max.-Flux-Residual
  Residual-Control   Outer-Iter.   Inner-Iter.     Column Row Layer    Maximum-Head-Change  Column Row Layer    Maximum-Flux-Residual          L2-NORM 
          0                 1           2             4    7     1      -0.1614920855E+00       4    7    1        -0.8448091525E+01      0.1954143910E+02
          0                 2           2             6    7     1       0.1471351894E-02       6    7    1         0.8100333121E-01      0.2208886649E+00
          0                 3           2             5    7     1      -0.1223167666E-01       4    7    1        -0.6481376196E+00      0.1577479494E+01
          0                 4           2             4    7     1      -0.9016380873E-02       4    7    1        -0.4991623123E+00      0.1141836619E+01
          0                 5           2             5    7     1       0.8472805261E-03       5    7    1         0.4636679126E-01      0.1050886038E+00
          0                 6           1             5    7     1      -0.5769675855E-04       5    7    1        -0.3265034905E-02      0.7258825265E-02

    ------------------------------------------------
       NWT REQUIRED            6 OUTER ITERATIONS 
       AND A TOTAL OF         11 INNER ITERATIONS.
    ------------------------------------------------

 NO OUTPUT CONTROL FOR STRESS PERIOD   32   TIME STEP    2
 
 SOLVING FOR HEAD 
                                                   Max.-Head-Change                         Max.-Flux-Residual
  Residual-Control   Outer-Iter.   Inner-Iter.     Column Row Layer    Maximum-Head-Change  Column Row Layer    Maximum-Flux-Residual          L2-NORM 
          0                 1           2             4    7     1      -0.1601509081E+00       4    7    1        -0.8381435797E+01      0.1916958593E+02
          0                 2           2             6    7     1       0.1682308791E-02       6    7    1         0.9280843748E-01      0.2621178026E+00
          0                 3           2             5    7     1      -0.1220472792E-01       4    7    1        -0.6476916463E+00      0.1573453398E+01
          0                 4           2             4    7     1      -0.9016765849E-02       4    7    1        -0.4991758276E+00      0.1142222974E+01
          0                 5           2             5    7     1       0.8475446102E-03       5    7    1         0.4638080566E-01      0.1051300086E+00
          0                 6           1             5    7     1      -0.5771474170E-04       5    7    1        -0.3266008770E-02      0.7261749655E-02

    ------------------------------------------------
       NWT REQUIRED            6 OUTER ITERATIONS 
       AND A TOTAL OF         11 INNER ITERATIONS.
    ------------------------------------------------

 NO OUTPUT CONTROL FOR STRESS PERIOD   32   TIME STEP    3
 
 SOLVING FOR HEAD 
                                                   Max.-Head-Change                         Max.-Flux-Residual
  Residual-Control   Outer-Iter.   Inner-Iter.     Column Row Layer    Maximum-Head-Change  Column Row Layer    Maximum-Flux-Residual          L2-NORM 
          0                 1           2             4    7     1      -0.1587571407E+00       4    7    1        -0.8311746897E+01      0.1881665321E+02
          0                 2           2             6    7     1       0.1883473579E-02       6    7    1         0.1040759734E+00      0.3049218183E+00
          0                 3           2             5    7     1      -0.1217818214E-01       4    7    1        -0.6472239368E+00      0.1569572671E+01
          0                 4           2             4    7     1      -0.9017166315E-02       4    7    1        -0.4991903454E+00      0.1142595004E+01
          0                 5           2             5    7     1       0.8478048725E-03       5    7    1         0.4639463873E-01      0.1051698146E+00
          0                 6           1             5    7     1      -0.5773246450E-04       5    7    1        -0.3266970096E-02      0.7264560255E-02

    ------------------------------------------------
       NWT REQUIRED            6 OUTER ITERATIONS 
       AND A TOTAL OF         11 INNER ITERATIONS.
    ------------------------------------------------

 NO OUTPUT CONTROL FOR STRESS PERIOD   32   TIME STEP    4
 
 SOLVING FOR HEAD 
                                                   Max.-Head-Change                         Max.-Flux-Residual
  Residual-Control   Outer-Iter.   Inner-Iter.     Column Row Layer    Maximum-Head-Change  Column Row Layer    Maximum-Flux-Residual          L2-NORM 
          0                 1           2             4    7     1      -0.1573160852E+00       4    7    1        -0.8239316960E+01      0.1848124435E+02
          0                 2           2             5    8     1      -0.2147156619E-02       5    8    1        -0.1202766287E+00      0.3477777531E+00
          0                 3           2             5    7     1      -0.1215205983E-01       4    7    1        -0.6467365430E+00      0.1565829738E+01
          0                 4           2             4    7     1      -0.9017580733E-02       4    7    1        -0.4992057797E+00      0.1142953416E+01
          0                 5           2             5    7     1       0.8480611036E-03       5    7    1         0.4640827634E-01      0.1052081025E+00
          0                 6           1             5    7     1      -0.5774991265E-04       5    7    1        -0.3267917918E-02      0.7267263961E-02

    ------------------------------------------------
       NWT REQUIRED            6 OUTER ITERATIONS 
       AND A TOTAL OF         11 INNER ITERATIONS.
    ------------------------------------------------

 NO OUTPUT CONTROL FOR STRESS PERIOD   32   TIME STEP    5
 
 SOLVING FOR HEAD 
                                                   Max.-Head-Change                         Max.-Flux-Residual
  Residual-Control   Outer-Iter.   Inner-Iter.     Column Row Layer    Maximum-Head-Change  Column Row Layer    Maximum-Flux-Residual          L2-NORM 
          0                 1           2             4    7     1      -0.1558332536E+00       4    7    1        -0.8164450095E+01      0.1816208504E+02
          0                 2           2             5    8     1      -0.2531917570E-02       5    8    1        -0.1413873612E+00      0.3899412555E+00
          0                 3           2             5    7     1      -0.1212637976E-01       4    7    1        -0.6462316019E+00      0.1562217424E+01
          0                 4           2             4    7     1      -0.9018007510E-02       4    7    1        -0.4992220412E+00      0.1143298895E+01
          0                 5           2             5    7     1       0.8483131121E-03       5    7    1         0.4642170554E-01      0.1052449501E+00
          0                 6           1             5    7     1      -0.5776707335E-04       5    7    1        -0.3268851329E-02      0.7269862965E-02

    ------------------------------------------------
       NWT REQUIRED            6 OUTER ITERATIONS 
       AND A TOTAL OF         11 INNER ITERATIONS.
    ------------------------------------------------

 NO OUTPUT CONTROL FOR STRESS PERIOD   32   TIME STEP    6
 
 SOLVING FOR HEAD 
                                                   Max.-Head-Change                         Max.-Flux-Residual
  Residual-Control   Outer-Iter.   Inner-Iter.     Column Row Layer    Maximum-Head-Change  Column Row Layer    Maximum-Flux-Residual          L2-NORM 
          0                 1           2             4    7     1      -0.1543131535E+00       4    7    1        -0.8087395583E+01      0.1785801644E+02
          0                 2           2             5    8     1      -0.2896641060E-02       5    8    1        -0.1613803491E+00      0.4310421550E+00
          0                 3           2             5    7     1      -0.1210115497E-01       4    7    1        -0.6457108674E+00      0.1558729144E+01
          0                 4           2             4    7     1      -0.9018445340E-02       4    7    1        -0.4992390557E+00      0.1143632065E+01
          0                 5           2             5    7     1       0.8485607632E-03       5    7    1         0.4643491681E-01      0.1052804288E+00
          0                 6           1             5    7     1      -0.5778393786E-04       5    7    1        -0.3269769647E-02      0.7272365633E-02

    ------------------------------------------------
       NWT REQUIRED            6 OUTER ITERATIONS 
       AND A TOTAL OF         11 INNER ITERATIONS.
    ------------------------------------------------

 NO OUTPUT CONTROL FOR STRESS PERIOD   32   TIME STEP    7
 
 SOLVING FOR HEAD 
                                                   Max.-Head-Change                         Max.-Flux-Residual
  Residual-Control   Outer-Iter.   Inner-Iter.     Column Row Layer    Maximum-Head-Change  Column Row Layer    Maximum-Flux-Residual          L2-NORM 
          0                 1           2             4    7     1      -0.1527605386E+00       4    7    1        -0.8008416330E+01      0.1756799079E+02
          0                 2           2             5    8     1      -0.3242711915E-02       5    8    1        -0.1803335796E+00      0.4709045418E+00
          0                 3           2             4    7     1      -0.1234703387E-01       4    7    1        -0.6449431935E+00      0.1555266288E+01
          0                 4           2             4    7     1      -0.8801339835E-02       5    8    1        -0.4611721095E+00      0.1127858588E+01
          0                 5           2             4    7     1       0.8561299527E-03       5    8    1         0.4613027879E-01      0.1128084724E+00
          0                 6           1             4    7     1      -0.5829928030E-04       5    8    1        -0.3229640491E-02      0.7897823759E-02

    ------------------------------------------------
       NWT REQUIRED            6 OUTER ITERATIONS 
       AND A TOTAL OF         11 INNER ITERATIONS.
    ------------------------------------------------

 NO OUTPUT CONTROL FOR STRESS PERIOD   32   TIME STEP    8
 
 SOLVING FOR HEAD 
                                                   Max.-Head-Change                         Max.-Flux-Residual
  Residual-Control   Outer-Iter.   Inner-Iter.     Column Row Layer    Maximum-Head-Change  Column Row Layer    Maximum-Flux-Residual          L2-NORM 
          0                 1           2             4    7     1      -0.1511793318E+00       4    7    1        -0.7927729886E+01      0.1729104070E+02
          0                 2           2             5    8     1      -0.3571363922E-02       5    8    1        -0.1983165085E+00      0.5094545229E+00
          0                 3           2             4    7     1      -0.1233125404E-01       4    7    1        -0.6441371912E+00      0.1551905012E+01
          0                 4           2             4    7     1      -0.8802948427E-02       5    8    1        -0.4613503376E+00      0.1128196839E+01
          0                 5           2             4    7     1       0.8562864256E-03       5    8    1         0.4614806557E-01      0.1128422707E+00
          0                 6           1             4    7     1      -0.5830993593E-04       5    8    1        -0.3230884154E-02      0.7900186458E-02

    ------------------------------------------------
       NWT REQUIRED            6 OUTER ITERATIONS 
       AND A TOTAL OF         11 INNER ITERATIONS.
    ------------------------------------------------

 NO OUTPUT CONTROL FOR STRESS PERIOD   32   TIME STEP    9
 
 SOLVING FOR HEAD 
                                                   Max.-Head-Change                         Max.-Flux-Residual
  Residual-Control   Outer-Iter.   Inner-Iter.     Column Row Layer    Maximum-Head-Change  Column Row Layer    Maximum-Flux-Residual          L2-NORM 
          0                 1           2             4    7     1      -0.1495738476E+00       4    7    1        -0.7845575597E+01      0.1702628917E+02
          0                 2           2             5    8     1      -0.3883777108E-02       5    8    1        -0.2153954541E+00      0.5466205869E+00
          0                 3           2             4    7     1      -0.1231523241E-01       4    7    1        -0.6433164992E+00      0.1548648461E+01
          0                 4           2             4    7     1      -0.8804582003E-02       5    8    1        -0.4615196352E+00      0.1128524663E+01
          0                 5           2             4    7     1       0.8564453286E-03       5    8    1         0.4616496176E-01      0.1128750284E+00
          0                 6           1             4    7     1      -0.5832075663E-04       5    8    1        -0.3232065531E-02      0.7902476200E-02

    ------------------------------------------------
       NWT REQUIRED            6 OUTER ITERATIONS 
       AND A TOTAL OF         11 INNER ITERATIONS.
    ------------------------------------------------

 NO OUTPUT CONTROL FOR STRESS PERIOD   32   TIME STEP   10
 
 SOLVING FOR HEAD 
                                                   Max.-Head-Change                         Max.-Flux-Residual
  Residual-Control   Outer-Iter.   Inner-Iter.     Column Row Layer    Maximum-Head-Change  Column Row Layer    Maximum-Flux-Residual          L2-NORM 
          0                 1           2             4    7     1      -0.1479478525E+00       4    7    1        -0.7762162852E+01      0.1677294882E+02
          0                 2           2             5    8     1      -0.4180991912E-02       5    8    1        -0.2316291841E+00      0.5825862202E+00
          0                 3           2             4    7     1      -0.1229900666E-01       4    7    1        -0.6424832104E+00      0.1545492267E+01
          0                 4           2             4    7     1      -0.8806236691E-02       5    8    1        -0.4616805811E+00      0.1128842492E+01
          0                 5           2             4    7     1       0.8566062852E-03       5    8    1         0.4618102492E-01      0.1129067862E+00
          0                 6           1             4    7     1      -0.5833171709E-04       5    8    1        -0.3233188728E-02      0.7904696237E-02

    ------------------------------------------------
       NWT REQUIRED            6 OUTER ITERATIONS 
       AND A TOTAL OF         11 INNER ITERATIONS.
    ------------------------------------------------

 NO OUTPUT CONTROL FOR STRESS PERIOD   32   TIME STEP   11
 
 SOLVING FOR HEAD 
                                                   Max.-Head-Change                         Max.-Flux-Residual
  Residual-Control   Outer-Iter.   Inner-Iter.     Column Row Layer    Maximum-Head-Change  Column Row Layer    Maximum-Flux-Residual          L2-NORM 
          0                 1           2             4    7     1      -0.1463044509E+00       4    7    1        -0.7677665005E+01      0.1653031437E+02
          0                 2           2             5    8     1      -0.4464004799E-02       5    8    1        -0.2470734207E+00      0.6172287771E+00
          0                 3           2             4    7     1      -0.1228260762E-01       4    7    1        -0.6416390581E+00      0.1542431415E+01
          0                 4           2             4    7     1      -0.8807909353E-02       5    8    1        -0.4618337263E+00      0.1129150788E+01
          0                 5           2             4    7     1       0.8567689898E-03       5    8    1         0.4619631007E-01      0.1129375919E+00
          0                 6           1             4    7     1      -0.5834279659E-04       5    8    1        -0.3234257520E-02      0.7906851194E-02

    ------------------------------------------------
       NWT REQUIRED            6 OUTER ITERATIONS 
       AND A TOTAL OF         11 INNER ITERATIONS.
    ------------------------------------------------

 NO OUTPUT CONTROL FOR STRESS PERIOD   32   TIME STEP   12
 
 SOLVING FOR HEAD 
                                                   Max.-Head-Change                         Max.-Flux-Residual
  Residual-Control   Outer-Iter.   Inner-Iter.     Column Row Layer    Maximum-Head-Change  Column Row Layer    Maximum-Flux-Residual          L2-NORM 
          0                 1           2             4    7     1      -0.1446473297E+00       4    7    1        -0.7592286797E+01      0.1629768420E+02
          0                 2           2             5    8     1      -0.4733729810E-02       5    8    1        -0.2617796222E+00      0.6506310746E+00
          0                 3           2             4    7     1      -0.1226607211E-01       4    7    1        -0.6407860887E+00      0.1539461941E+01
          0                 4           2             4    7     1      -0.8809596229E-02       5    8    1        -0.4619795782E+00      0.1129449936E+01
          0                 5           2             4    7     1       0.8569330774E-03       5    8    1         0.4621086782E-01      0.1129674836E+00
          0                 6           1             4    7     1      -0.5835397041E-04       5    8    1        -0.3235275465E-02      0.7908939593E-02

    ------------------------------------------------
       NWT REQUIRED            6 OUTER ITERATIONS 
       AND A TOTAL OF         11 INNER ITERATIONS.
    ------------------------------------------------

 NO OUTPUT CONTROL FOR STRESS PERIOD   32   TIME STEP   13
 
 SOLVING FOR HEAD 
                                                   Max.-Head-Change                         Max.-Flux-Residual
  Residual-Control   Outer-Iter.   Inner-Iter.     Column Row Layer    Maximum-Head-Change  Column Row Layer    Maximum-Flux-Residual          L2-NORM 
          0                 1           2             4    7     1      -0.1429792467E+00       4    7    1        -0.7506182936E+01      0.1607442517E+02
          0                 2           2             5    8     1      -0.4991027077E-02       5    8    1        -0.2757960313E+00      0.6828423472E+00
          0                 3           2             4    7     1      -0.1224942763E-01       4    7    1        -0.6399258488E+00      0.1536579675E+01
          0                 4           2             4    7     1      -0.8811294508E-02       5    8    1        -0.4621186128E+00      0.1129740338E+01
          0                 5           2             4    7     1       0.8570982737E-03       5    8    1         0.4622474559E-01      0.1129965016E+00
          0                 6           1             4    7     1      -0.5836521973E-04       5    8    1        -0.3236245903E-02      0.7910968303E-02

    ------------------------------------------------
       NWT REQUIRED            6 OUTER ITERATIONS 
       AND A TOTAL OF         11 INNER ITERATIONS.
    ------------------------------------------------

 NO OUTPUT CONTROL FOR STRESS PERIOD   32   TIME STEP   14
 
 SOLVING FOR HEAD 
                                                   Max.-Head-Change                         Max.-Flux-Residual
  Residual-Control   Outer-Iter.   Inner-Iter.     Column Row Layer    Maximum-Head-Change  Column Row Layer    Maximum-Flux-Residual          L2-NORM 
          0                 1           2             4    7     1      -0.1413030212E+00       4    7    1        -0.7419510976E+01      0.1585996616E+02
          0                 2           2             5    8     1      -0.5236664185E-02       5    8    1        -0.2891656844E+00      0.7139108683E+00
          0                 3           2             4    7     1      -0.1223270231E-01       4    7    1        -0.6390599137E+00      0.1533780879E+01
          0                 4           2             4    7     1      -0.8813001317E-02       5    8    1        -0.4622512553E+00      0.1130022357E+01
          0                 5           2             4    7     1       0.8572642996E-03       5    8    1         0.4623798580E-01      0.1130246824E+00
          0                 6           1             4    7     1      -0.5837652502E-04       5    8    1        -0.3237171756E-02      0.7912940520E-02

    ------------------------------------------------
       NWT REQUIRED            6 OUTER ITERATIONS 
       AND A TOTAL OF         11 INNER ITERATIONS.
    ------------------------------------------------

 NO OUTPUT CONTROL FOR STRESS PERIOD   32   TIME STEP   15
 
 SOLVING FOR HEAD 
                                                   Max.-Head-Change                         Max.-Flux-Residual
  Residual-Control   Outer-Iter.   Inner-Iter.     Column Row Layer    Maximum-Head-Change  Column Row Layer    Maximum-Flux-Residual          L2-NORM 
          0                 1           2             4    7     1      -0.1396211283E+00       4    7    1        -0.7332409814E+01      0.1565378806E+02
          0                 2           2             5    8     1      -0.5471364887E-02       5    8    1        -0.3019291628E+00      0.7438875298E+00
          0                 3           2             4    7     1      -0.1221592081E-01       4    7    1        -0.6381896718E+00      0.1531062016E+01
          0                 4           2             4    7     1      -0.8814714134E-02       5    8    1        -0.4623779061E+00      0.1130296339E+01
          0                 5           2             4    7     1       0.8574309103E-03       5    8    1         0.4625062836E-01      0.1130520601E+00
          0                 6           1             4    7     1      -0.5838787101E-04       5    8    1        -0.3238055837E-02      0.7914858214E-02

    ------------------------------------------------
       NWT REQUIRED            6 OUTER ITERATIONS 
       AND A TOTAL OF         11 INNER ITERATIONS.
    ------------------------------------------------

 NO OUTPUT CONTROL FOR STRESS PERIOD   32   TIME STEP   16
 
 SOLVING FOR HEAD 
                                                   Max.-Head-Change                         Max.-Flux-Residual
  Residual-Control   Outer-Iter.   Inner-Iter.     Column Row Layer    Maximum-Head-Change  Column Row Layer    Maximum-Flux-Residual          L2-NORM 
          0                 1           2             4    7     1      -0.1379362551E+00       4    7    1        -0.7245029589E+01      0.1545541723E+02
          0                 2           2             5    8     1      -0.5695812692E-02       5    8    1        -0.3141247738E+00      0.7728224732E+00
          0                 3           2             4    7     1      -0.1219910995E-01       4    7    1        -0.6373166241E+00      0.1528419784E+01
          0                 4           2             4    7     1      -0.8816430219E-02       5    8    1        -0.4624989434E+00      0.1130562607E+01
          0                 5           2             4    7     1       0.8575978391E-03       5    8    1         0.4626271098E-01      0.1130786669E+00
          0                 6           1             4    7     1      -0.5839923831E-04       5    8    1        -0.3238900802E-02      0.7916713035E-02

    ------------------------------------------------
       NWT REQUIRED            6 OUTER ITERATIONS 
       AND A TOTAL OF         11 INNER ITERATIONS.
    ------------------------------------------------

 NO OUTPUT CONTROL FOR STRESS PERIOD   32   TIME STEP   17
 
 SOLVING FOR HEAD 
                                                   Max.-Head-Change                         Max.-Flux-Residual
  Residual-Control   Outer-Iter.   Inner-Iter.     Column Row Layer    Maximum-Head-Change  Column Row Layer    Maximum-Flux-Residual          L2-NORM 
          0                 1           2             4    7     1      -0.1362504839E+00       4    7    1        -0.7157487801E+01      0.1526440098E+02
          0                 2           2             5    8     1      -0.5910641018E-02       5    8    1        -0.3257879574E+00      0.8007651476E+00
          0                 3           2             4    7     1      -0.1218229048E-01       4    7    1        -0.6364419454E+00      0.1525850902E+01
          0                 4           2             4    7     1      -0.8818147449E-02       5    8    1        -0.4626147170E+00      0.1130821484E+01
          0                 5           2             4    7     1       0.8577648790E-03       5    8    1         0.4627426856E-01      0.1131045357E+00
          0                 6           1             4    7     1      -0.5841061307E-04       5    8    1        -0.3239709010E-02      0.7918522339E-02

    ------------------------------------------------
       NWT REQUIRED            6 OUTER ITERATIONS 
       AND A TOTAL OF         11 INNER ITERATIONS.
    ------------------------------------------------

 NO OUTPUT CONTROL FOR STRESS PERIOD   32   TIME STEP   18
 
 SOLVING FOR HEAD 
                                                   Max.-Head-Change                         Max.-Flux-Residual
  Residual-Control   Outer-Iter.   Inner-Iter.     Column Row Layer    Maximum-Head-Change  Column Row Layer    Maximum-Flux-Residual          L2-NORM 
          0                 1           2             4    7     1      -0.1345658577E+00       4    7    1        -0.7069899684E+01      0.1508032212E+02
          0                 2           2             5    8     1      -0.6116423242E-02       5    8    1        -0.3369507770E+00      0.8277608701E+00
          0                 3           2             4    7     1      -0.1216548278E-01       4    7    1        -0.6355667877E+00      0.1523352364E+01
          0                 4           2             4    7     1      -0.8819863740E-02       5    8    1        -0.4627255436E+00      0.1131073267E+01
          0                 5           2             4    7     1       0.8579318268E-03       5    8    1         0.4628533268E-01      0.1131296959E+00
          0                 6           1             4    7     1      -0.5842198143E-04       5    8    1        -0.3240482781E-02      0.7920281076E-02

    ------------------------------------------------
       NWT REQUIRED            6 OUTER ITERATIONS 
       AND A TOTAL OF         11 INNER ITERATIONS.
    ------------------------------------------------

 NO OUTPUT CONTROL FOR STRESS PERIOD   32   TIME STEP   19
 
 SOLVING FOR HEAD 
                                                   Max.-Head-Change                         Max.-Flux-Residual
  Residual-Control   Outer-Iter.   Inner-Iter.     Column Row Layer    Maximum-Head-Change  Column Row Layer    Maximum-Flux-Residual          L2-NORM 
          0                 1           2             4    7     1      -0.1328841265E+00       4    7    1        -0.6982363890E+01      0.1490280987E+02
          0                 2           2             5    8     1      -0.6313690413E-02       5    8    1        -0.3476429631E+00      0.8538548859E+00
          0                 3           2             4    7     1      -0.1214870430E-01       4    7    1        -0.6346921375E+00      0.1520921378E+01
          0                 4           2             4    7     1      -0.8821577308E-02       5    8    1        -0.4628317168E+00      0.1131318234E+01
          0                 5           2             4    7     1       0.8580985104E-03       5    8    1         0.4629593260E-01      0.1131541750E+00
          0                 6           1             4    7     1      -0.5843333169E-04       5    8    1        -0.3241224085E-02      0.7921992764E-02

    ------------------------------------------------
       NWT REQUIRED            6 OUTER ITERATIONS 
       AND A TOTAL OF         11 INNER ITERATIONS.
    ------------------------------------------------

 NO OUTPUT CONTROL FOR STRESS PERIOD   32   TIME STEP   20
 
 SOLVING FOR HEAD 
                                                   Max.-Head-Change                         Max.-Flux-Residual
  Residual-Control   Outer-Iter.   Inner-Iter.     Column Row Layer    Maximum-Head-Change  Column Row Layer    Maximum-Flux-Residual          L2-NORM 
          0                 1           2             4    7     1      -0.1312072902E+00       4    7    1        -0.6894992943E+01      0.1473152368E+02
          0                 2           2             5    8     1      -0.6502963299E-02       5    8    1        -0.3578936103E+00      0.8790902162E+00
          0                 3           2             4    7     1      -0.1213197499E-01       4    7    1        -0.6338191198E+00      0.1518555318E+01
          0                 4           2             4    7     1      -0.8823286112E-02       5    8    1        -0.4629335238E+00      0.1131556645E+01
          0                 5           2             4    7     1       0.8582647303E-03       5    8    1         0.4630609696E-01      0.1131779993E+00
          0                 6           1             4    7     1      -0.5844465083E-04       5    8    1        -0.3241934946E-02      0.7923658981E-02

    ------------------------------------------------
       NWT REQUIRED            6 OUTER ITERATIONS 
       AND A TOTAL OF         11 INNER ITERATIONS.
    ------------------------------------------------

 NO OUTPUT CONTROL FOR STRESS PERIOD   32   TIME STEP   21
 
 SOLVING FOR HEAD 
                                                   Max.-Head-Change                         Max.-Flux-Residual
  Residual-Control   Outer-Iter.   Inner-Iter.     Column Row Layer    Maximum-Head-Change  Column Row Layer    Maximum-Flux-Residual          L2-NORM 
          0                 1           2             4    7     1      -0.1295367847E+00       4    7    1        -0.6807868738E+01      0.1456612382E+02
          0                 2           2             5    8     1      -0.6684697980E-02       5    8    1        -0.3677281622E+00      0.9035071341E+00
          0                 3           2             4    7     1      -0.1211530915E-01       4    7    1        -0.6329485535E+00      0.1516251531E+01
          0                 4           2             4    7     1      -0.8824988687E-02       5    8    1        -0.4630312161E+00      0.1131788765E+01
          0                 5           2             4    7     1       0.8584303445E-03       5    8    1         0.4631585087E-01      0.1132011952E+00
          0                 6           1             4    7     1      -0.5845592854E-04       5    8    1        -0.3242617110E-02      0.7925280750E-02

    ------------------------------------------------
       NWT REQUIRED            6 OUTER ITERATIONS 
       AND A TOTAL OF         11 INNER ITERATIONS.
    ------------------------------------------------

 NO OUTPUT CONTROL FOR STRESS PERIOD   32   TIME STEP   22
 
 SOLVING FOR HEAD 
                                                   Max.-Head-Change                         Max.-Flux-Residual
  Residual-Control   Outer-Iter.   Inner-Iter.     Column Row Layer    Maximum-Head-Change  Column Row Layer    Maximum-Flux-Residual          L2-NORM 
          0                 1           2             4    7     1      -0.1278739184E+00       4    7    1        -0.6721065732E+01      0.1440631469E+02
          0                 2           2             5    8     1      -0.6859331413E-02       5    8    1        -0.3771710466E+00      0.9271443875E+00
          0                 3           2             4    7     1      -0.1209871983E-01       4    7    1        -0.6320811831E+00      0.1514007629E+01
          0                 4           2             4    7     1      -0.8826683698E-02       5    8    1        -0.4631250347E+00      0.1132014834E+01
          0                 5           2             4    7     1       0.8585952230E-03       5    8    1         0.4632521833E-01      0.1132237865E+00
          0                 6           1             4    7     1      -0.5846715644E-04       5    8    1        -0.3243272274E-02      0.7926860566E-02

    ------------------------------------------------
       NWT REQUIRED            6 OUTER ITERATIONS 
       AND A TOTAL OF         11 INNER ITERATIONS.
    ------------------------------------------------

 NO OUTPUT CONTROL FOR STRESS PERIOD   32   TIME STEP   23
 
 SOLVING FOR HEAD 
                                                   Max.-Head-Change                         Max.-Flux-Residual
  Residual-Control   Outer-Iter.   Inner-Iter.     Column Row Layer    Maximum-Head-Change  Column Row Layer    Maximum-Flux-Residual          L2-NORM 
          0                 1           2             4    7     1      -0.1262202760E+00       4    7    1        -0.6634673514E+01      0.1425181637E+02
          0                 2           2             5    8     1      -0.7027250052E-02       5    8    1        -0.3862449202E+00      0.9500582537E+00
          0                 3           2             4    7     1      -0.1208222284E-01       4    7    1        -0.6312179044E+00      0.1511821414E+01
          0                 4           2             4    7     1      -0.8828369524E-02       5    8    1        -0.4632151989E+00      0.1132235076E+01
          0                 5           2             4    7     1       0.8587592076E-03       5    8    1         0.4633421859E-01      0.1132457948E+00
          0                 6           1             4    7     1      -0.5847832316E-04       5    8    1        -0.3243901642E-02      0.7928399631E-02

    ------------------------------------------------
       NWT REQUIRED            6 OUTER ITERATIONS 
       AND A TOTAL OF         11 INNER ITERATIONS.
    ------------------------------------------------

 NO OUTPUT CONTROL FOR STRESS PERIOD   32   TIME STEP   24
 
 SOLVING FOR HEAD 
                                                   Max.-Head-Change                         Max.-Flux-Residual
  Residual-Control   Outer-Iter.   Inner-Iter.     Column Row Layer    Maximum-Head-Change  Column Row Layer    Maximum-Flux-Residual          L2-NORM 
          0                 1           2             4    7     1      -0.1245770418E+00       4    7    1        -0.6548759730E+01      0.1410236544E+02
          0                 2           2             5    8     1      -0.7188883067E-02       5    8    1        -0.3949709761E+00      0.9722467363E+00
          0                 3           2             4    7     1      -0.1206582999E-01       4    7    1        -0.6303593940E+00      0.1509690629E+01
          0                 4           2             4    7     1      -0.8830044958E-02       5    8    1        -0.4633019359E+00      0.1132449712E+01
          0                 5           2             4    7     1       0.8589221813E-03       5    8    1         0.4634287586E-01      0.1132672425E+00
          0                 6           1             4    7     1      -0.5848942065E-04       5    8    1        -0.3244507010E-02      0.7929899450E-02

    ------------------------------------------------
       NWT REQUIRED            6 OUTER ITERATIONS 
       AND A TOTAL OF         11 INNER ITERATIONS.
    ------------------------------------------------

 NO OUTPUT CONTROL FOR STRESS PERIOD   32   TIME STEP   25
 
 SOLVING FOR HEAD 
                                                   Max.-Head-Change                         Max.-Flux-Residual
  Residual-Control   Outer-Iter.   Inner-Iter.     Column Row Layer    Maximum-Head-Change  Column Row Layer    Maximum-Flux-Residual          L2-NORM 
          0                 1           2             4    7     1      -0.1229450228E+00       4    7    1        -0.6463371297E+01      0.1395764797E+02
          0                 2           2             5    8     1      -0.7344638634E-02       5    8    1        -0.4033704464E+00      0.9937198317E+00
          0                 3           2             4    7     1      -0.1204954931E-01       4    7    1        -0.6295061211E+00      0.1507612886E+01
          0                 4           2             4    7     1      -0.8831709175E-02       5    8    1        -0.4633854595E+00      0.1132658973E+01
          0                 5           2             4    7     1       0.8590840645E-03       5    8    1         0.4635121685E-01      0.1132881551E+00
          0                 6           1             4    7     1      -0.5850044454E-04       5    8    1        -0.3245090427E-02      0.7931361990E-02

    ------------------------------------------------
       NWT REQUIRED            6 OUTER ITERATIONS 
       AND A TOTAL OF         11 INNER ITERATIONS.
    ------------------------------------------------

 NO OUTPUT CONTROL FOR STRESS PERIOD   32   TIME STEP   26
 
 SOLVING FOR HEAD 
                                                   Max.-Head-Change                         Max.-Flux-Residual
  Residual-Control   Outer-Iter.   Inner-Iter.     Column Row Layer    Maximum-Head-Change  Column Row Layer    Maximum-Flux-Residual          L2-NORM 
          0                 1           2             4    7     1      -0.1213255933E+00       4    7    1        -0.6378586275E+01      0.1381744513E+02
          0                 2           2             5    8     1      -0.7494745920E-02       5    8    1        -0.4114608711E+00      0.1014564532E+01
          0                 3           2             4    7     1      -0.1203339450E-01       4    7    1        -0.6286588662E+00      0.1505586583E+01
          0                 4           2             4    7     1      -0.8833360770E-02       5    8    1        -0.4634659140E+00      0.1132863033E+01
          0                 5           2             4    7     1       0.8592447194E-03       5    8    1         0.4635925136E-01      0.1133085480E+00
          0                 6           1             4    7     1      -0.5851138429E-04       5    8    1        -0.3245652411E-02      0.7932788589E-02

    ------------------------------------------------
       NWT REQUIRED            6 OUTER ITERATIONS 
       AND A TOTAL OF         11 INNER ITERATIONS.
    ------------------------------------------------

 NO OUTPUT CONTROL FOR STRESS PERIOD   32   TIME STEP   27
 
 SOLVING FOR HEAD 
                                                   Max.-Head-Change                         Max.-Flux-Residual
  Residual-Control   Outer-Iter.   Inner-Iter.     Column Row Layer    Maximum-Head-Change  Column Row Layer    Maximum-Flux-Residual          L2-NORM 
          0                 1           2             4    7     1      -0.1197193466E+00       4    7    1        -0.6294439685E+01      0.1368160635E+02
          0                 2           2             5    8     1      -0.7639562230E-02       5    8    1        -0.4192606081E+00      0.1034795436E+01
          0                 3           2             4    7     1      -0.1201737150E-01       4    7    1        -0.6278179796E+00      0.1503609653E+01
          0                 4           2             4    7     1      -0.8834999136E-02       5    8    1        -0.4635434918E+00      0.1133062099E+01
          0                 5           2             4    7     1       0.8594040875E-03       5    8    1         0.4636699886E-01      0.1133284419E+00
          0                 6           1             4    7     1      -0.5852223694E-04       5    8    1        -0.3246194334E-02      0.7934179684E-02

    ------------------------------------------------
       NWT REQUIRED            6 OUTER ITERATIONS 
       AND A TOTAL OF         11 INNER ITERATIONS.
    ------------------------------------------------

 NO OUTPUT CONTROL FOR STRESS PERIOD   32   TIME STEP   28
 
 SOLVING FOR HEAD 
                                                   Max.-Head-Change                         Max.-Flux-Residual
  Residual-Control   Outer-Iter.   Inner-Iter.     Column Row Layer    Maximum-Head-Change  Column Row Layer    Maximum-Flux-Residual          L2-NORM 
          0                 1           2             4    7     1      -0.1181273345E+00       4    7    1        -0.6210991264E+01      0.1354995697E+02
          0                 2           2             5    8     1      -0.7779353004E-02       5    8    1        -0.4267844231E+00      0.1054438737E+01
          0                 3           2             4    7     1      -0.1200149076E-01       4    7    1        -0.6269840590E+00      0.1501680528E+01
          0                 4           2             4    7     1      -0.8836623197E-02       5    8    1        -0.4636183386E+00      0.1133256329E+01
          0                 5           2             4    7     1       0.8595620640E-03       5    8    1         0.4637447385E-01      0.1133478527E+00
          0                 6           1             4    7     1      -0.5853299445E-04       5    8    1        -0.3246717188E-02      0.7935538426E-02

    ------------------------------------------------
       NWT REQUIRED            6 OUTER ITERATIONS 
       AND A TOTAL OF         11 INNER ITERATIONS.
    ------------------------------------------------

 NO OUTPUT CONTROL FOR STRESS PERIOD   32   TIME STEP   29
 
 SOLVING FOR HEAD 
                                                   Max.-Head-Change                         Max.-Flux-Residual
  Residual-Control   Outer-Iter.   Inner-Iter.     Column Row Layer    Maximum-Head-Change  Column Row Layer    Maximum-Flux-Residual          L2-NORM 
          0                 1           2             4    7     1      -0.1165501080E+00       4    7    1        -0.6128273813E+01      0.1342229236E+02
          0                 2           2             5    8     1      -0.7904562511E-02       5    8    1        -0.4334235710E+00      0.1073450639E+01
          0                 3           2             4    7     1      -0.1198574452E-01       4    7    1        -0.6261574324E+00      0.1499796842E+01
          0                 4           2             4    7     1      -0.8838235223E-02       5    8    1        -0.4636843636E+00      0.1133445904E+01
          0                 5           2             4    7     1       0.8597188704E-03       5    8    1         0.4638106704E-01      0.1133667984E+00
          0                 6           1             4    7     1      -0.5854367244E-04       5    8    1        -0.3247178349E-02      0.7936862324E-02

    ------------------------------------------------
       NWT REQUIRED            6 OUTER ITERATIONS 
       AND A TOTAL OF         11 INNER ITERATIONS.
    ------------------------------------------------

 NO OUTPUT CONTROL FOR STRESS PERIOD   32   TIME STEP   30



 STREAM LISTING     PERIOD     32   STEP       30

 LAYER ROW COL. STREAM  RCH.  FLOW INTO     FLOW TO   FLOW OUT OF   OVRLND.     DIRECT     STREAM       STREAM     STREAM     STREAM   STREAMBED  STREAMBED
                SEG.NO.  NO.  STRM. RCH.    AQUIFER    STRM. RCH.    RUNOFF     PRECIP       ET          HEAD       DEPTH      WIDTH   CONDCTNC.   GRADIENT

   1    1    1     1     1    1.9000E+01  2.1427E-01   1.8786E+01  0.000E+00  0.000E+00  0.000E+00  1.09413E+03  1.082E+00  1.166E+01  5.249E-02  1.361E+00
   1    2    2     1     2    1.8786E+01  3.3054E-01   1.8455E+01  0.000E+00  0.000E+00  0.000E+00  1.08914E+03  1.077E+00  1.158E+01  8.107E-02  1.359E+00
   1    3    3     1     3    1.8455E+01  2.8064E-01   1.8175E+01  0.000E+00  0.000E+00  0.000E+00  1.08349E+03  1.072E+00  1.149E+01  6.892E-02  1.357E+00
   1    3    4     1     4    1.8175E+01  2.5740E-01   1.7917E+01  0.000E+00  0.000E+00  0.000E+00  1.07848E+03  1.068E+00  1.140E+01  6.328E-02  1.356E+00
   1    4    5     2     1    1.5917E+01  3.0542E-01   1.5612E+01  0.000E+00  0.000E+00  0.000E+00  1.07285E+03  9.157E-01  1.200E+01  7.800E-02  1.305E+00
   1    5    6     2     2    1.5612E+01  2.3438E-01   1.5377E+01  0.000E+00  0.000E+00  0.000E+00  1.06742E+03  9.063E-01  1.200E+01  6.000E-02  1.302E+00
   1    6    6     2     3    1.5377E+01  2.3388E-01   1.5143E+01  0.000E+00  0.000E+00  0.000E+00  1.06269E+03  8.980E-01  1.200E+01  6.000E-02  1.299E+00
   1    7    6     2     4    1.5143E+01  2.3338E-01   1.4910E+01  0.000E+00  0.000E+00  0.000E+00  1.05797E+03  8.897E-01  1.200E+01  6.000E-02  1.297E+00
   1    8    6     2     5    1.4910E+01  2.3289E-01   1.4677E+01  0.000E+00  0.000E+00  0.000E+00  1.05324E+03  8.814E-01  1.200E+01  6.000E-02  1.294E+00
   1    3    5     3     1    2.0000E+00  2.8252E-01   1.7175E+00  0.000E+00  0.000E+00  0.000E+00  1.07555E+03  1.909E+00  9.636E+00  7.227E-02  1.955E+00
   1    3    6     3     2    1.7175E+00  2.4905E-01   1.4684E+00  0.000E+00  0.000E+00  0.000E+00  1.07264E+03  1.727E+00  8.909E+00  6.682E-02  1.864E+00
   1    3    7     3     3    1.4684E+00  1.9718E-01   1.2712E+00  0.000E+00  0.000E+00  0.000E+00  1.06987E+03  1.555E+00  8.218E+00  5.547E-02  1.777E+00
   1    4    8     3     4    1.2712E+00  2.2567E-01   1.0456E+00  0.000E+00  0.000E+00  0.000E+00  1.06682E+03  1.364E+00  7.455E+00  6.709E-02  1.682E+00
   1    5    8     3     5    1.0456E+00  1.5790E-01   8.8768E-01  0.000E+00  0.000E+00  0.000E+00  1.06362E+03  1.164E+00  6.655E+00  4.991E-02  1.582E+00
   1    6    8     3     6    8.8768E-01  5.5980E-02   8.3170E-01  0.000E+00  0.000E+00  0.000E+00  1.06158E+03  1.036E+00  6.145E+00  1.844E-02  1.518E+00
   1    5   10     4     1    1.0000E+01  9.0919E-02   9.9091E+00  0.000E+00  0.000E+00  0.000E+00  1.07836E+03  6.368E-01  1.000E+01  2.500E-02  1.212E+00
   1    5    9     4     2    9.9091E+00  1.8158E-01   9.7275E+00  0.000E+00  0.000E+00  0.000E+00  1.07154E+03  6.315E-01  1.000E+01  5.000E-02  1.211E+00
   1    6    8     4     3    9.7275E+00  1.2689E-01   9.6006E+00  0.000E+00  0.000E+00  0.000E+00  1.06381E+03  6.256E-01  1.000E+01  3.500E-02  1.209E+00
   1    6    8     5     1    1.0432E+01  2.2686E-01   1.0205E+01  0.000E+00  0.000E+00  0.000E+00  1.05868E+03  6.790E-01  1.542E+01  6.166E-02  1.226E+00
   1    7    7     5     2    1.0205E+01  2.7894E-01   9.9265E+00  0.000E+00  0.000E+00  0.000E+00  1.05417E+03  6.732E-01  1.519E+01  7.594E-02  1.224E+00
   1    8    7     5     3    9.9265E+00  1.9221E-01   9.7343E+00  0.000E+00  0.000E+00  0.000E+00  1.04992E+03  6.676E-01  1.497E+01  5.241E-02  1.223E+00
   1    8    6     5     4    9.7343E+00  1.3577E-01   9.5985E+00  0.000E+00  0.000E+00  0.000E+00  1.04691E+03  6.637E-01  1.482E+01  3.706E-02  1.221E+00
   1    9    6     6     1    2.4276E+01  2.5176E-01   2.4024E+01  0.000E+00  0.000E+00  0.000E+00  1.04392E+03  1.196E+00  1.200E+01  6.000E-02  1.399E+00
   1   10    7     6     2    2.4024E+01  2.5131E-01   2.3773E+01  0.000E+00  0.000E+00  0.000E+00  1.03937E+03  1.188E+00  1.200E+01  6.000E-02  1.396E+00
   1   11    7     6     3    2.3773E+01  2.5086E-01   2.3522E+01  0.000E+00  0.000E+00  0.000E+00  1.03482E+03  1.181E+00  1.200E+01  6.000E-02  1.394E+00
   1   12    7     6     4    2.3522E+01  2.5041E-01   2.3271E+01  0.000E+00  0.000E+00  0.000E+00  1.03026E+03  1.173E+00  1.200E+01  6.000E-02  1.391E+00
   1   13    7     6     5    2.3271E+01  6.5782E-03   2.3265E+01  0.000E+00  0.000E+00  0.000E+00  1.02708E+03  1.170E+00  1.200E+01  2.400E-02  9.136E-02
   1   14    9     7     1    1.5000E+02  1.3496E+00   1.4865E+02  0.000E+00  0.000E+00  0.000E+00  1.03987E+03  2.288E+00  5.529E+01  5.593E-01  8.043E-01
   1   13    8     7     2    1.4865E+02  1.9085E+00   1.4674E+02  0.000E+00  0.000E+00  0.000E+00  1.03478E+03  2.279E+00  5.526E+01  6.148E-01  1.035E+00
   1   13    7     7     3    1.4674E+02  1.6107E+00   1.4513E+02  0.000E+00  0.000E+00  0.000E+00  1.02969E+03  2.270E+00  5.521E+01  5.584E-01  9.615E-01
   1   13    6     8     1    1.6840E+02  1.0509E+00   1.6735E+02  0.000E+00  0.000E+00  0.000E+00  1.02481E+03  2.938E+00  4.261E+01  4.342E-01  8.068E-01
   1   13    5     8     2    1.6735E+02  2.9554E-01   1.6705E+02  0.000E+00  0.000E+00  0.000E+00  1.01856E+03  2.934E+00  4.254E+01  4.335E-01  2.272E-01
   1   13    4     8     3    1.6705E+02 -2.0375E+00   1.6909E+02  0.000E+00  0.000E+00  0.000E+00  1.01231E+03  2.940E+00  4.262E+01  4.344E+00 -1.564E-01
   1   13    3     8     4    1.6909E+02 -3.4517E+00   1.7254E+02  0.000E+00  0.000E+00  0.000E+00  1.00608E+03  2.957E+00  4.288E+01  4.370E+00 -2.633E-01
   1   13    2     8     5    1.7254E+02 -2.5292E+00   1.7507E+02  0.000E+00  0.000E+00  0.000E+00  9.99852E+02  2.977E+00  4.316E+01  4.399E+00 -1.917E-01
   1   13    1     8     6    1.7507E+02 -1.9707E+00   1.7704E+02  0.000E+00  0.000E+00  0.000E+00  9.94866E+02  2.991E+00  4.337E+01  2.652E+00 -2.477E-01





UNSATURATED ZONE PACKAGE VOLUMETRIC BUDGET FOR  TIME STEP    30 STRESS PERIOD   32
  ------------------------------------------------------------------------------



     CUMULATIVE VOLUMES      L**3       RATES FOR THIS TIME STEP      L**3/T
     ------------------                 ------------------------

           IN:                                      IN:
           ---                                      ---
        INFILTRATION =  1216654430.6526          INFILTRATION =          72.6628

          OUT:                                     OUT:
          ----                                     ----
              UZF ET =  1102800328.6866                UZF ET =          58.2420
        UZF RECHARGE =    75855283.4546          UZF RECHARGE =       0.0000E+00

            IN - OUT =    37998818.5114              IN - OUT =          14.4207

          STORAGE:                                 STORAGE:
          --------                                 --------
      STORAGE CHANGE =    37998824.3864        STORAGE CHANGE =          14.4207

 PERCENT DISCREPANCY IS DIFFERENCE BETWEEN IN-OUT MINUS CHANGE IN STORAGE
 DIVIDED BY THE AVERAGE OF IN AND OUT TIMES 100

 PERCENT DISCREPANCY =           0.00     PERCENT DISCREPANCY =           0.00






1
  VOLUMETRIC BUDGET FOR AGRICULTURAL FIELDS AT  END OF TIME STEP   30, STRESS PERIOD  32
  ------------------------------------------------------------------------------

     CUMULATIVE VOLUMES      L**3       RATES FOR THIS TIME STEP      L**3/T
     ------------------                 ------------------------

           IN:                                      IN:
           ---                                      ---
               AG WELLS  =  1147483008.0000                 AG WELLS  =          71.8153
      DIVERSION SEGMENTS =           0.0000        DIVERSION SEGMENTS =           0.0000
           GW IRRIGATION =           0.0000             GW IRRIGATION =           0.0000
           SW IRRIGATION =           0.0000             SW IRRIGATION =           0.0000
        SYSTEM LOSSES GW =           0.0000          SYSTEM LOSSES GW =           0.0000
        SYSTEM LOSSES SW =           0.0000          SYSTEM LOSSES SW =           0.0000

                TOTAL IN =  1147483008.0000                  TOTAL IN =          71.8153

          OUT:                                     OUT:
          ----                                     ----
               AG WELLS  =           0.0000                 AG WELLS  =           0.0000
      DIVERSION SEGMENTS =           0.0000        DIVERSION SEGMENTS =           0.0000
           GW IRRIGATION =  1147483008.0000             GW IRRIGATION =          71.8153
           SW IRRIGATION =           0.0000             SW IRRIGATION =           0.0000
        SYSTEM LOSSES GW =           0.0000          SYSTEM LOSSES GW =           0.0000
        SYSTEM LOSSES SW =           0.0000          SYSTEM LOSSES SW =           0.0000

               TOTAL OUT =  1147483008.0000                 TOTAL OUT =          71.8153

                IN - OUT =           0.0000                  IN - OUT =           0.0000

     PERCENT DISCREPANCY =           0.00         PERCENT DISCREPANCY =           0.00



1
  VOLUMETRIC BUDGET FOR ENTIRE MODEL AT END OF TIME STEP   30, STRESS PERIOD  32
  ------------------------------------------------------------------------------

     CUMULATIVE VOLUMES      L**3       RATES FOR THIS TIME STEP      L**3/T
     ------------------                 ------------------------

           IN:                                      IN:
           ---                                      ---
             STORAGE     =  1455994624.0000               STORAGE     =          69.9279
       CONSTANT HEAD     =           0.0000         CONSTANT HEAD     =           0.0000
     HEAD DEP BOUNDS     =    23314112.0000       HEAD DEP BOUNDS     =           0.2867
      STREAM LEAKAGE     =  1002717312.0000        STREAM LEAKAGE     =          11.9503
        UZF RECHARGE     =    75855336.0000          UZF RECHARGE     =           0.0000
               GW ET     =           0.0000                 GW ET     =           0.0000
     SURFACE LEAKAGE     =           0.0000       SURFACE LEAKAGE     =           0.0000
           AG WELLS      =           0.0000             AG WELLS      =           0.0000

                TOTAL IN =  2557881344.0000                  TOTAL IN =          82.1649

          OUT:                                     OUT:
          ----                                     ----
             STORAGE     =   527421120.0000               STORAGE     =       7.0494E-02
       CONSTANT HEAD     =           0.0000         CONSTANT HEAD     =           0.0000
     HEAD DEP BOUNDS     =    23911598.0000       HEAD DEP BOUNDS     =           0.2892
      STREAM LEAKAGE     =   841447104.0000        STREAM LEAKAGE     =           9.9892
        UZF RECHARGE     =           0.0000          UZF RECHARGE     =           0.0000
               GW ET     =    17607600.0000                 GW ET     =           0.0000
     SURFACE LEAKAGE     =           0.0000       SURFACE LEAKAGE     =           0.0000
           AG WELLS      =  1147483008.0000             AG WELLS      =          71.8153

               TOTAL OUT =  2557870336.0000                 TOTAL OUT =          82.1641

                IN - OUT =       11008.0000                  IN - OUT =       7.7820E-04

     PERCENT DISCREPANCY =           0.00         PERCENT DISCREPANCY =           0.00






         TIME SUMMARY AT END OF TIME STEP   30 IN STRESS PERIOD   32
                    SECONDS     MINUTES      HOURS       DAYS        YEARS
                    -----------------------------------------------------------
   TIME STEP LENGTH  87667.      1461.1      24.352      1.0147     2.77799E-03
 STRESS PERIOD TIME 2.63000E+06  43833.      730.56      30.440     8.33397E-02
         TOTAL TIME 8.16164E+07 1.36027E+06  22671.      944.63      2.5863    
1
1
                            STRESS PERIOD NO.   33, LENGTH =   2630000.    
                            -----------------------------------------------

                              NUMBER OF TIME STEPS =    30

                               MULTIPLIER FOR DELT =     1.000

                            INITIAL TIME STEP SIZE =   87666.66    

 REUSING NON-PARAMETER GHB CELLS FROM LAST STRESS PERIOD

      2 GHB CELLS

 REUSING STREAM SEGMENT DATA FROM LAST STRESS PERIOD



            AREAL INFILTRATION RATE
 READING ON UNIT   19 WITH FORMAT: (FREE)              

            1           2           3           4           5           6           7           8           9          10
 ........................................................................................................................
   1   1.0000E-10  2.0000E-10   0.000       0.000       0.000       0.000       0.000       0.000       0.000       0.000    
   2   2.0000E-10  1.0000E-10  2.0000E-10   0.000       0.000      8.0000E-10  8.0000E-10  5.0000E-10   0.000       0.000    
   3    0.000      5.0000E-10  1.0000E-10  1.0000E-10  8.0000E-10  8.0000E-10  5.0000E-10  5.0000E-10   0.000       0.000    
   4   8.0000E-10  5.0000E-10  1.0000E-10  1.0000E-10  1.0000E-10  1.0000E-10  1.0000E-10  1.0000E-10  2.0000E-10   0.000    
   5   8.0000E-10  5.0000E-10  1.0000E-10  1.0000E-10  1.0000E-10  1.0000E-10  1.0000E-10  1.0000E-10  1.0000E-10  1.0000E-10
   6   8.0000E-10  5.0000E-10  5.0000E-10  2.0000E-10  2.0000E-10  1.0000E-10  1.0000E-10  1.0000E-10  1.0000E-10  5.0000E-10
   7   8.0000E-10  5.0000E-10  5.0000E-10  2.0000E-10  2.0000E-10  1.0000E-10  1.0000E-10  2.0000E-10  2.0000E-10   0.000    
   8    0.000      5.0000E-10  5.0000E-10  2.0000E-10  2.0000E-10  1.0000E-10  1.0000E-10  2.0000E-10  5.0000E-10   0.000    
   9    0.000      5.0000E-10  5.0000E-10  2.0000E-10  2.0000E-10  1.0000E-10  1.0000E-10  2.0000E-10  5.0000E-10   0.000    
  10    0.000      5.0000E-10  5.0000E-10  2.0000E-10  2.0000E-10  1.0000E-10  1.0000E-10  2.0000E-10  5.0000E-10  8.0000E-10
  11    0.000      1.0000E-10  1.0000E-10  1.0000E-10  1.0000E-10  1.0000E-10  1.0000E-10  2.0000E-10  5.0000E-10   0.000    
  12   1.0000E-10  1.0000E-10  1.0000E-10  1.0000E-10  1.0000E-10  1.0000E-10  1.0000E-10  1.0000E-10  2.0000E-10   0.000    
  13   1.0000E-10  1.0000E-10  2.0000E-10  2.0000E-10  2.0000E-10  2.0000E-10  2.0000E-10  1.0000E-10  1.0000E-10   0.000    
  14    0.000      2.0000E-10  5.0000E-10  5.0000E-10  5.0000E-10  5.0000E-10  5.0000E-10  2.0000E-10  1.0000E-10   0.000    
  15    0.000       0.000      8.0000E-10  8.0000E-10  8.0000E-10  8.0000E-10   0.000       0.000       0.000       0.000    

                  ET RATE =  3.250000E-07

 USING ET EXTINCTION DEPTH FROM PREVIOUS STRESS PERIOD. CURRENT PERIOD IS:      33

 USING EXTINCTION WATER CONTENT FROM PREVIOUS STRESS PERIOD. CURRENT PERIOD IS:      33

 USING AIR ENTRY PRESSURE FROM PREVIOUS STRESS PERIOD. CURRENT PERIOD IS:      33

 USING ROOT PRESSURE HEAD FROM PREVIOUS STRESS PERIOD. CURRENT PERIOD IS:      33

 USING ROOT ACTIVITY FROM PREVIOUS STRESS PERIOD. CURRENT PERIOD IS:      33

 PROCESSING AG STRESS PERIOD DATA

 READING AG STRESS PERIOD DATA

 READING IRRIGATION WELL

 END PROCESSING AG STRESS PERIOD DATA OPTIONS
 
 SOLVING FOR HEAD 
                                                   Max.-Head-Change                         Max.-Flux-Residual
  Residual-Control   Outer-Iter.   Inner-Iter.     Column Row Layer    Maximum-Head-Change  Column Row Layer    Maximum-Flux-Residual          L2-NORM 
          0                 1           2             4    7     1      -0.7907107532E-01       4    7    1        -0.4171331154E+01      0.9694054578E+01
          0                 2           2             4    7     1       0.7691288779E-02       4    7    1         0.4171214699E+00      0.9693980054E+00
          0                 3           2             4    7     1      -0.5237499213E-03       4    7    1        -0.2919862568E-01      0.6785795628E-01
          0                 4           1             4    7     1       0.2084049182E-04       4    7    1         0.1194224948E-02      0.2775394521E-02

    ------------------------------------------------
       NWT REQUIRED            4 OUTER ITERATIONS 
       AND A TOTAL OF          7 INNER ITERATIONS.
    ------------------------------------------------

 NO OUTPUT CONTROL FOR STRESS PERIOD   33   TIME STEP    1
 
 SOLVING FOR HEAD 
                                                   Max.-Head-Change                         Max.-Flux-Residual
  Residual-Control   Outer-Iter.   Inner-Iter.     Column Row Layer    Maximum-Head-Change  Column Row Layer    Maximum-Flux-Residual          L2-NORM 
          0                 1           2             4    7     1      -0.7790628558E-01       4    7    1        -0.4108308382E+01      0.9626081262E+01
          0                 2           2             4    7     1       0.7577993870E-02       4    7    1         0.4108197021E+00      0.9626009702E+00
          0                 3           2             4    7     1      -0.5160348858E-03       4    7    1        -0.2875749692E-01      0.6738215718E-01
          0                 4           1             4    7     1       0.2053350396E-04       4    7    1         0.1176182775E-02      0.2755933980E-02

    ------------------------------------------------
       NWT REQUIRED            4 OUTER ITERATIONS 
       AND A TOTAL OF          7 INNER ITERATIONS.
    ------------------------------------------------

 NO OUTPUT CONTROL FOR STRESS PERIOD   33   TIME STEP    2
 
 SOLVING FOR HEAD 
                                                   Max.-Head-Change                         Max.-Flux-Residual
  Residual-Control   Outer-Iter.   Inner-Iter.     Column Row Layer    Maximum-Head-Change  Column Row Layer    Maximum-Flux-Residual          L2-NORM 
          0                 1           2             4    7     1      -0.7678730973E-01       4    7    1        -0.4047782841E+01      0.9561725463E+01
          0                 2           2             4    7     1       0.7469157573E-02       4    7    1         0.4047676293E+00      0.9563418255E+00
          0                 3           2             4    7     1      -0.5086234691E-03       4    7    1        -0.2833384709E-01      0.6694401320E-01
          0                 4           1             4    7     1       0.2023859666E-04       4    7    1         0.1158855485E-02      0.2738013560E-02

    ------------------------------------------------
       NWT REQUIRED            4 OUTER ITERATIONS 
       AND A TOTAL OF          7 INNER ITERATIONS.
    ------------------------------------------------

 NO OUTPUT CONTROL FOR STRESS PERIOD   33   TIME STEP    3
 
 SOLVING FOR HEAD 
                                                   Max.-Head-Change                         Max.-Flux-Residual
  Residual-Control   Outer-Iter.   Inner-Iter.     Column Row Layer    Maximum-Head-Change  Column Row Layer    Maximum-Flux-Residual          L2-NORM 
          0                 1           2             4    7     1      -0.7571214252E-01       4    7    1        -0.3989647127E+01      0.9500454428E+01
          0                 2           2             4    7     1       0.7364577129E-02       4    7    1         0.3989545122E+00      0.9500391734E+00
          0                 3           2             4    7     1      -0.5015018651E-03       4    7    1        -0.2792692445E-01      0.6650282444E-01
          0                 4           1             4    7     1       0.1995522205E-04       4    7    1         0.1142212356E-02      0.2719969209E-02

    ------------------------------------------------
       NWT REQUIRED            4 OUTER ITERATIONS 
       AND A TOTAL OF          7 INNER ITERATIONS.
    ------------------------------------------------

 NO OUTPUT CONTROL FOR STRESS PERIOD   33   TIME STEP    4
 
 SOLVING FOR HEAD 
                                                   Max.-Head-Change                         Max.-Flux-Residual
  Residual-Control   Outer-Iter.   Inner-Iter.     Column Row Layer    Maximum-Head-Change  Column Row Layer    Maximum-Flux-Residual          L2-NORM 
          0                 1           2             4    7     1      -0.7467848085E-01       4    7    1        -0.3933775985E+01      0.9442028998E+01
          0                 2           2             4    7     1       0.7241922915E-02       4    7    1         0.3919428369E+00      0.9440437397E+00
          0                 3           2             4    7     1      -0.4931493917E-03       4    7    1        -0.2743609505E-01      0.6608314119E-01
          0                 4           1             4    7     1       0.1962286996E-04       4    7    1         0.1122137444E-02      0.2702803368E-02

    ------------------------------------------------
       NWT REQUIRED            4 OUTER ITERATIONS 
       AND A TOTAL OF          7 INNER ITERATIONS.
    ------------------------------------------------

 NO OUTPUT CONTROL FOR STRESS PERIOD   33   TIME STEP    5
 
 SOLVING FOR HEAD 
                                                   Max.-Head-Change                         Max.-Flux-Residual
  Residual-Control   Outer-Iter.   Inner-Iter.     Column Row Layer    Maximum-Head-Change  Column Row Layer    Maximum-Flux-Residual          L2-NORM 
          0                 1           2             4    7     1      -0.7373611824E-01       4    7    1        -0.3881257191E+01      0.9386348908E+01
          0                 2           2             4    7     1       0.7172385006E-02       4    7    1         0.3881169944E+00      0.9386290780E+00
          0                 3           2             4    7     1      -0.4884140870E-03       4    7    1        -0.2716828391E-01      0.6570411397E-01
          0                 4           1             4    7     1       0.1943444787E-04       4    7    1         0.1111183978E-02      0.2687301697E-02

    ------------------------------------------------
       NWT REQUIRED            4 OUTER ITERATIONS 
       AND A TOTAL OF          7 INNER ITERATIONS.
    ------------------------------------------------

 NO OUTPUT CONTROL FOR STRESS PERIOD   33   TIME STEP    6
 
 SOLVING FOR HEAD 
                                                   Max.-Head-Change                         Max.-Flux-Residual
  Residual-Control   Outer-Iter.   Inner-Iter.     Column Row Layer    Maximum-Head-Change  Column Row Layer    Maximum-Flux-Residual          L2-NORM 
          0                 1           2             4    7     1      -0.7280581649E-01       4    7    1        -0.3831107154E+01      0.9333063364E+01
          0                 2           2             4    7     1       0.7081896666E-02       4    7    1         0.3831023107E+00      0.9333006828E+00
          0                 3           2             4    7     1      -0.4822521206E-03       4    7    1        -0.2681725285E-01      0.6533112915E-01
          0                 4           1             4    7     1       0.1918925752E-04       4    7    1         0.1096826788E-02      0.2672061050E-02

    ------------------------------------------------
       NWT REQUIRED            4 OUTER ITERATIONS 
       AND A TOTAL OF          7 INNER ITERATIONS.
    ------------------------------------------------

 NO OUTPUT CONTROL FOR STRESS PERIOD   33   TIME STEP    7
 
 SOLVING FOR HEAD 
                                                   Max.-Head-Change                         Max.-Flux-Residual
  Residual-Control   Outer-Iter.   Inner-Iter.     Column Row Layer    Maximum-Head-Change  Column Row Layer    Maximum-Flux-Residual          L2-NORM 
          0                 1           2             4    7     1      -0.7190891306E-01       4    7    1        -0.3782776218E+01      0.9281897826E+01
          0                 2           2             4    7     1       0.6994656849E-02       4    7    1         0.3782695216E+00      0.9281842771E+00
          0                 3           2             4    7     1      -0.4763113695E-03       4    7    1        -0.2647895461E-01      0.6497297495E-01
          0                 4           1             4    7     1       0.1895286993E-04       4    7    1         0.1082990389E-02      0.2657397836E-02

    ------------------------------------------------
       NWT REQUIRED            4 OUTER ITERATIONS 
       AND A TOTAL OF          7 INNER ITERATIONS.
    ------------------------------------------------

 NO OUTPUT CONTROL FOR STRESS PERIOD   33   TIME STEP    8
 
 SOLVING FOR HEAD 
                                                   Max.-Head-Change                         Max.-Flux-Residual
  Residual-Control   Outer-Iter.   Inner-Iter.     Column Row Layer    Maximum-Head-Change  Column Row Layer    Maximum-Flux-Residual          L2-NORM 
          0                 1           2             4    7     1      -0.7104365884E-01       4    7    1        -0.3736169794E+01      0.9232654577E+01
          0                 2           2             4    7     1       0.6910495428E-02       4    7    1         0.3736091692E+00      0.9232600912E+00
          0                 3           2             4    7     1      -0.4705802476E-03       4    7    1        -0.2615272704E-01      0.6462827993E-01
          0                 4           1             4    7     1       0.1872482368E-04       4    7    1         0.1069647692E-02      0.2643299837E-02

    ------------------------------------------------
       NWT REQUIRED            4 OUTER ITERATIONS 
       AND A TOTAL OF          7 INNER ITERATIONS.
    ------------------------------------------------

 NO OUTPUT CONTROL FOR STRESS PERIOD   33   TIME STEP    9
 
 SOLVING FOR HEAD 
                                                   Max.-Head-Change                         Max.-Flux-Residual
  Residual-Control   Outer-Iter.   Inner-Iter.     Column Row Layer    Maximum-Head-Change  Column Row Layer    Maximum-Flux-Residual          L2-NORM 
          0                 1           2             4    7     1      -0.7020864715E-01       4    7    1        -0.3691211640E+01      0.9185158494E+01
          0                 2           2             4    7     1       0.6829275579E-02       4    7    1         0.3691136299E+00      0.9185106084E+00
          0                 3           2             4    7     1      -0.4650494373E-03       4    7    1        -0.2583803654E-01      0.6429581600E-01
          0                 4           1             4    7     1       0.1850474737E-04       4    7    1         0.1056776835E-02      0.2629702502E-02

    ------------------------------------------------
       NWT REQUIRED            4 OUTER ITERATIONS 
       AND A TOTAL OF          7 INNER ITERATIONS.
    ------------------------------------------------

 NO OUTPUT CONTROL FOR STRESS PERIOD   33   TIME STEP   10
 
 SOLVING FOR HEAD 
                                                   Max.-Head-Change                         Max.-Flux-Residual
  Residual-Control   Outer-Iter.   Inner-Iter.     Column Row Layer    Maximum-Head-Change  Column Row Layer    Maximum-Flux-Residual          L2-NORM 
          0                 1           2             4    7     1      -0.6940253417E-01       4    7    1        -0.3647828815E+01      0.9139269131E+01
          0                 2           2             4    7     1       0.6750866593E-02       4    7    1         0.3647756103E+00      0.9139217905E+00
          0                 3           2             4    7     1      -0.4597100387E-03       4    7    1        -0.2553437255E-01      0.6397459770E-01
          0                 4           1             4    7     1       0.1829228802E-04       4    7    1         0.1044356971E-02      0.2616568042E-02

    ------------------------------------------------
       NWT REQUIRED            4 OUTER ITERATIONS 
       AND A TOTAL OF          7 INNER ITERATIONS.
    ------------------------------------------------

 NO OUTPUT CONTROL FOR STRESS PERIOD   33   TIME STEP   11
 
 SOLVING FOR HEAD 
                                                   Max.-Head-Change                         Max.-Flux-Residual
  Residual-Control   Outer-Iter.   Inner-Iter.     Column Row Layer    Maximum-Head-Change  Column Row Layer    Maximum-Flux-Residual          L2-NORM 
          0                 1           2             4    7     1      -0.6862376826E-01       4    7    1        -0.3605937199E+01      0.9094848924E+01
          0                 2           2             4    7     1       0.6675117551E-02       4    7    1         0.3605866989E+00      0.9094798796E+00
          0                 3           2             4    7     1      -0.4545517739E-03       4    7    1        -0.2524114625E-01      0.6366365915E-01
          0                 4           1             4    7     1       0.1808703600E-04       4    7    1         0.1032364001E-02      0.2603845677E-02

    ------------------------------------------------
       NWT REQUIRED            4 OUTER ITERATIONS 
       AND A TOTAL OF          7 INNER ITERATIONS.
    ------------------------------------------------

 NO OUTPUT CONTROL FOR STRESS PERIOD   33   TIME STEP   12
 
 SOLVING FOR HEAD 
                                                   Max.-Head-Change                         Max.-Flux-Residual
  Residual-Control   Outer-Iter.   Inner-Iter.     Column Row Layer    Maximum-Head-Change  Column Row Layer    Maximum-Flux-Residual          L2-NORM 
          0                 1           2             4    7     1      -0.6787126468E-01       4    7    1        -0.3565477999E+01      0.9051771504E+01
          0                 2           2             4    7     1       0.6601922942E-02       4    7    1         0.3565410170E+00      0.9051722390E+00
          0                 3           2             4    7     1      -0.4495674587E-03       4    7    1        -0.2495794614E-01      0.6336212566E-01
          0                 4           1             4    7     1       0.1788870568E-04       4    7    1         0.1020781121E-02      0.2591513856E-02

    ------------------------------------------------
       NWT REQUIRED            4 OUTER ITERATIONS 
       AND A TOTAL OF          7 INNER ITERATIONS.
    ------------------------------------------------

 NO OUTPUT CONTROL FOR STRESS PERIOD   33   TIME STEP   13
 
 SOLVING FOR HEAD 
                                                   Max.-Head-Change                         Max.-Flux-Residual
  Residual-Control   Outer-Iter.   Inner-Iter.     Column Row Layer    Maximum-Head-Change  Column Row Layer    Maximum-Flux-Residual          L2-NORM 
          0                 1           2             4    7     1      -0.6714373120E-01       4    7    1        -0.3526380528E+01      0.9009953288E+01
          0                 2           2             4    7     1       0.6531157077E-02       4    7    1         0.3526314966E+00      0.9009905156E+00
          0                 3           2             4    7     1      -0.4447485336E-03       4    7    1        -0.2468427747E-01      0.6306940226E-01
          0                 4           1             4    7     1       0.1769695606E-04       4    7    1         0.1009588063E-02      0.2579542192E-02

    ------------------------------------------------
       NWT REQUIRED            4 OUTER ITERATIONS 
       AND A TOTAL OF          7 INNER ITERATIONS.
    ------------------------------------------------

 NO OUTPUT CONTROL FOR STRESS PERIOD   33   TIME STEP   14
 
 SOLVING FOR HEAD 
                                                   Max.-Head-Change                         Max.-Flux-Residual
  Residual-Control   Outer-Iter.   Inner-Iter.     Column Row Layer    Maximum-Head-Change  Column Row Layer    Maximum-Flux-Residual          L2-NORM 
          0                 1           2             4    7     1      -0.6643993494E-01       4    7    1        -0.3488577782E+01      0.8969281048E+01
          0                 2           2             4    7     1       0.6462700040E-02       4    7    1         0.3488514379E+00      0.8969233833E+00
          0                 3           2             4    7     1      -0.4400868322E-03       4    7    1        -0.2441967120E-01      0.6278470452E-01
          0                 4           1             4    7     1       0.1751146293E-04       4    7    1         0.9987656638E-03      0.2567898015E-02

    ------------------------------------------------
       NWT REQUIRED            4 OUTER ITERATIONS 
       AND A TOTAL OF          7 INNER ITERATIONS.
    ------------------------------------------------

 NO OUTPUT CONTROL FOR STRESS PERIOD   33   TIME STEP   15
 
 SOLVING FOR HEAD 
                                                   Max.-Head-Change                         Max.-Flux-Residual
  Residual-Control   Outer-Iter.   Inner-Iter.     Column Row Layer    Maximum-Head-Change  Column Row Layer    Maximum-Flux-Residual          L2-NORM 
          0                 1           2             4    7     1      -0.6575883261E-01       4    7    1        -0.3452013055E+01      0.8929684757E+01
          0                 2           2             4    7     1       0.6396450353E-02       4    7    1         0.3451951707E+00      0.8929638408E+00
          0                 3           2             4    7     1      -0.4355754448E-03       4    7    1        -0.2416373044E-01      0.6250753439E-01
          0                 4           1             4    7     1       0.1733195068E-04       4    7    1         0.9882976790E-03      0.2556561388E-02

    ------------------------------------------------
       NWT REQUIRED            4 OUTER ITERATIONS 
       AND A TOTAL OF          7 INNER ITERATIONS.
    ------------------------------------------------

 NO OUTPUT CONTROL FOR STRESS PERIOD   33   TIME STEP   16
 
 SOLVING FOR HEAD 
                                                   Max.-Head-Change                         Max.-Flux-Residual
  Residual-Control   Outer-Iter.   Inner-Iter.     Column Row Layer    Maximum-Head-Change  Column Row Layer    Maximum-Flux-Residual          L2-NORM 
          0                 1           2             4    7     1      -0.6509917090E-01       4    7    1        -0.3416617816E+01      0.8891078781E+01
          0                 2           2             4    7     1       0.6332286113E-02       4    7    1         0.3416558426E+00      0.8891033253E+00
          0                 3           2             4    7     1      -0.4312060701E-03       4    7    1        -0.2391597551E-01      0.6223729822E-01
          0                 4           1             4    7     1       0.1715808924E-04       4    7    1         0.9781645019E-03      0.2545509012E-02

    ------------------------------------------------
       NWT REQUIRED            4 OUTER ITERATIONS 
       AND A TOTAL OF          7 INNER ITERATIONS.
    ------------------------------------------------

 NO OUTPUT CONTROL FOR STRESS PERIOD   33   TIME STEP   17
 
 SOLVING FOR HEAD 
                                                   Max.-Head-Change                         Max.-Flux-Residual
  Residual-Control   Outer-Iter.   Inner-Iter.     Column Row Layer    Maximum-Head-Change  Column Row Layer    Maximum-Flux-Residual          L2-NORM 
          0                 1           2             4    7     1      -0.6446015366E-01       4    7    1        -0.3382348728E+01      0.8853411462E+01
          0                 2           2             4    7     1       0.6270129881E-02       4    7    1         0.3382291202E+00      0.8853366717E+00
          0                 3           2             4    7     1      -0.4269734346E-03       4    7    1        -0.2367610308E-01      0.6197363193E-01
          0                 4           1             4    7     1       0.1698966907E-04       4    7    1         0.9683537153E-03      0.2534725185E-02

    ------------------------------------------------
       NWT REQUIRED            4 OUTER ITERATIONS 
       AND A TOTAL OF          7 INNER ITERATIONS.
    ------------------------------------------------

 NO OUTPUT CONTROL FOR STRESS PERIOD   33   TIME STEP   18
 
 SOLVING FOR HEAD 
                                                   Max.-Head-Change                         Max.-Flux-Residual
  Residual-Control   Outer-Iter.   Inner-Iter.     Column Row Layer    Maximum-Head-Change  Column Row Layer    Maximum-Flux-Residual          L2-NORM 
          0                 1           2             4    7     1      -0.6384062997E-01       4    7    1        -0.3349142863E+01      0.8816620998E+01
          0                 2           2             4    7     1       0.6209869713E-02       4    7    1         0.3349087114E+00      0.8816577038E+00
          0                 3           2             4    7     1      -0.4228699150E-03       4    7    1        -0.2344367267E-01      0.6171610064E-01
          0                 4           1             4    7     1       0.1682638613E-04       4    7    1         0.9588473069E-03      0.2524191261E-02

    ------------------------------------------------
       NWT REQUIRED            4 OUTER ITERATIONS 
       AND A TOTAL OF          7 INNER ITERATIONS.
    ------------------------------------------------

 NO OUTPUT CONTROL FOR STRESS PERIOD   33   TIME STEP   19
 
 SOLVING FOR HEAD 
                                                   Max.-Head-Change                         Max.-Flux-Residual
  Residual-Control   Outer-Iter.   Inner-Iter.     Column Row Layer    Maximum-Head-Change  Column Row Layer    Maximum-Flux-Residual          L2-NORM 
          0                 1           2             4    7     1      -0.6323976995E-01       4    7    1        -0.3316954974E+01      0.8780647763E+01
          0                 2           2             4    7     1       0.6151424890E-02       4    7    1         0.3316900917E+00      0.8780604549E+00
          0                 3           2             4    7     1      -0.4188900151E-03       4    7    1        -0.2321836759E-01      0.6146429419E-01
          0                 4           1             4    7     1       0.1666802270E-04       4    7    1         0.9496323314E-03      0.2513895060E-02

    ------------------------------------------------
       NWT REQUIRED            4 OUTER ITERATIONS 
       AND A TOTAL OF          7 INNER ITERATIONS.
    ------------------------------------------------

 NO OUTPUT CONTROL FOR STRESS PERIOD   33   TIME STEP   20
 
 SOLVING FOR HEAD 
                                                   Max.-Head-Change                         Max.-Flux-Residual
  Residual-Control   Outer-Iter.   Inner-Iter.     Column Row Layer    Maximum-Head-Change  Column Row Layer    Maximum-Flux-Residual          L2-NORM 
          0                 1           2             4    7     1      -0.6265665740E-01       4    7    1        -0.3285734818E+01      0.8745449789E+01
          0                 2           2             4    7     1       0.6094706297E-02       4    7    1         0.3285682374E+00      0.8745407483E+00
          0                 3           2             4    7     1      -0.4150276665E-03       4    7    1        -0.2299983619E-01      0.6121791275E-01
          0                 4           1             4    7     1       0.1651433599E-04       4    7    1         0.9406943880E-03      0.2503815591E-02

    ------------------------------------------------
       NWT REQUIRED            4 OUTER ITERATIONS 
       AND A TOTAL OF          7 INNER ITERATIONS.
    ------------------------------------------------

 NO OUTPUT CONTROL FOR STRESS PERIOD   33   TIME STEP   21
 
 SOLVING FOR HEAD 
                                                   Max.-Head-Change                         Max.-Flux-Residual
  Residual-Control   Outer-Iter.   Inner-Iter.     Column Row Layer    Maximum-Head-Change  Column Row Layer    Maximum-Flux-Residual          L2-NORM 
          0                 1           2             4    7     1      -0.6209042273E-01       4    7    1        -0.3255434888E+01      0.8710982046E+01
          0                 2           2             4    7     1       0.6039629351E-02       4    7    1         0.3255383982E+00      0.8710940358E+00
          0                 3           2             4    7     1      -0.4112771082E-03       4    7    1        -0.2278774588E-01      0.6097664207E-01
          0                 4           1             4    7     1       0.1636509781E-04       4    7    1         0.9320198869E-03      0.2493946690E-02

    ------------------------------------------------
       NWT REQUIRED            4 OUTER ITERATIONS 
       AND A TOTAL OF          7 INNER ITERATIONS.
    ------------------------------------------------

 NO OUTPUT CONTROL FOR STRESS PERIOD   33   TIME STEP   22
 
 SOLVING FOR HEAD 
                                                   Max.-Head-Change                         Max.-Flux-Residual
  Residual-Control   Outer-Iter.   Inner-Iter.     Column Row Layer    Maximum-Head-Change  Column Row Layer    Maximum-Flux-Residual          L2-NORM 
          0                 1           2             4    7     1      -0.6154037433E-01       4    7    1        -0.3226017304E+01      0.8677213375E+01
          0                 2           2             4    7     1       0.5986126786E-02       4    7    1         0.3225967866E+00      0.8677172299E+00
          0                 3           2             4    7     1      -0.4076337609E-03       4    7    1        -0.2258183158E-01      0.6074026440E-01
          0                 4           1             4    7     1       0.1622012580E-04       4    7    1         0.9235979871E-03      0.2484280346E-02

    ------------------------------------------------
       NWT REQUIRED            4 OUTER ITERATIONS 
       AND A TOTAL OF          7 INNER ITERATIONS.
    ------------------------------------------------

 NO OUTPUT CONTROL FOR STRESS PERIOD   33   TIME STEP   23
 
 SOLVING FOR HEAD 
                                                   Max.-Head-Change                         Max.-Flux-Residual
  Residual-Control   Outer-Iter.   Inner-Iter.     Column Row Layer    Maximum-Head-Change  Column Row Layer    Maximum-Flux-Residual          L2-NORM 
          0                 1           2             4    7     1      -0.6100572330E-01       4    7    1        -0.3197438998E+01      0.8644095604E+01
          0                 2           2             4    7     1       0.5934121866E-02       4    7    1         0.3197390959E+00      0.8644055102E+00
          0                 3           2             4    7     1      -0.4040923988E-03       4    7    1        -0.2238179184E-01      0.6050844274E-01
          0                 4           1             4    7     1       0.1607921157E-04       4    7    1         0.9154163481E-03      0.2474797242E-02

    ------------------------------------------------
       NWT REQUIRED            4 OUTER ITERATIONS 
       AND A TOTAL OF          7 INNER ITERATIONS.
    ------------------------------------------------

 NO OUTPUT CONTROL FOR STRESS PERIOD   33   TIME STEP   24
 
 SOLVING FOR HEAD 
                                                   Max.-Head-Change                         Max.-Flux-Residual
  Residual-Control   Outer-Iter.   Inner-Iter.     Column Row Layer    Maximum-Head-Change  Column Row Layer    Maximum-Flux-Residual          L2-NORM 
          0                 1           2             4    7     1      -0.6048559272E-01       4    7    1        -0.3169651856E+01      0.8611614978E+01
          0                 2           2             4    7     1       0.5883529300E-02       4    7    1         0.3169605153E+00      0.8611575075E+00
          0                 3           2             4    7     1      -0.4006472134E-03       4    7    1        -0.2218728984E-01      0.6028108390E-01
          0                 4           1             4    7     1       0.1594212453E-04       4    7    1         0.9074612142E-03      0.2465500043E-02

    ------------------------------------------------
       NWT REQUIRED            4 OUTER ITERATIONS 
       AND A TOTAL OF          7 INNER ITERATIONS.
    ------------------------------------------------

 NO OUTPUT CONTROL FOR STRESS PERIOD   33   TIME STEP   25
 
 SOLVING FOR HEAD 
                                                   Max.-Head-Change                         Max.-Flux-Residual
  Residual-Control   Outer-Iter.   Inner-Iter.     Column Row Layer    Maximum-Head-Change  Column Row Layer    Maximum-Flux-Residual          L2-NORM 
          0                 1           2             4    7     1      -0.5997954962E-01       4    7    1        -0.3142632031E+01      0.8579725847E+01
          0                 2           2             4    7     1       0.5834306972E-02       4    7    1         0.3142586604E+00      0.8579686475E+00
          0                 3           2             4    7     1      -0.3972953372E-03       4    7    1        -0.2199815871E-01      0.6005787924E-01
          0                 4           1             4    7     1       0.1580875070E-04       4    7    1         0.8997257526E-03      0.2456408763E-02

    ------------------------------------------------
       NWT REQUIRED            4 OUTER ITERATIONS 
       AND A TOTAL OF          7 INNER ITERATIONS.
    ------------------------------------------------

 NO OUTPUT CONTROL FOR STRESS PERIOD   33   TIME STEP   26
 
 SOLVING FOR HEAD 
                                                   Max.-Head-Change                         Max.-Flux-Residual
  Residual-Control   Outer-Iter.   Inner-Iter.     Column Row Layer    Maximum-Head-Change  Column Row Layer    Maximum-Flux-Residual          L2-NORM 
          0                 1           2             4    7     1      -0.5948691590E-01       4    7    1        -0.3116342657E+01      0.8548407353E+01
          0                 2           2             4    7     1       0.5786388927E-02       4    7    1         0.3116298447E+00      0.8548368498E+00
          0                 3           2             4    7     1      -0.3940322782E-03       4    7    1        -0.2181414038E-01      0.5983863923E-01
          0                 4           1             4    7     1       0.1567891026E-04       4    7    1         0.8921993851E-03      0.2447411358E-02

    ------------------------------------------------
       NWT REQUIRED            4 OUTER ITERATIONS 
       AND A TOTAL OF          7 INNER ITERATIONS.
    ------------------------------------------------

 NO OUTPUT CONTROL FOR STRESS PERIOD   33   TIME STEP   27
 
 SOLVING FOR HEAD 
                                                   Max.-Head-Change                         Max.-Flux-Residual
  Residual-Control   Outer-Iter.   Inner-Iter.     Column Row Layer    Maximum-Head-Change  Column Row Layer    Maximum-Flux-Residual          L2-NORM 
          0                 1           2             4    7     1      -0.5900692195E-01       4    7    1        -0.3090741372E+01      0.8517637662E+01
          0                 2           2             4    7     1       0.5739700309E-02       4    7    1         0.3090698325E+00      0.8517599303E+00
          0                 3           2             4    7     1      -0.3908529400E-03       4    7    1        -0.2163493836E-01      0.5962325431E-01
          0                 4           1             4    7     1       0.1555240149E-04       4    7    1         0.8848700136E-03      0.2438599722E-02

    ------------------------------------------------
       NWT REQUIRED            4 OUTER ITERATIONS 
       AND A TOTAL OF          7 INNER ITERATIONS.
    ------------------------------------------------

 NO OUTPUT CONTROL FOR STRESS PERIOD   33   TIME STEP   28
 
 SOLVING FOR HEAD 
                                                   Max.-Head-Change                         Max.-Flux-Residual
  Residual-Control   Outer-Iter.   Inner-Iter.     Column Row Layer    Maximum-Head-Change  Column Row Layer    Maximum-Flux-Residual          L2-NORM 
          0                 1           2             4    7     1      -0.5853896775E-01       4    7    1        -0.3065795475E+01      0.8487390313E+01
          0                 2           2             4    7     1       0.5694182757E-02       4    7    1         0.3065753541E+00      0.8487457693E+00
          0                 3           2             4    7     1      -0.3877533475E-03       4    7    1        -0.2146032374E-01      0.5941225965E-01
          0                 4           1             4    7     1       0.1542906609E-04       4    7    1         0.8777282817E-03      0.2429964706E-02

    ------------------------------------------------
       NWT REQUIRED            4 OUTER ITERATIONS 
       AND A TOTAL OF          7 INNER ITERATIONS.
    ------------------------------------------------

 NO OUTPUT CONTROL FOR STRESS PERIOD   33   TIME STEP   29
 
 SOLVING FOR HEAD 
                                                   Max.-Head-Change                         Max.-Flux-Residual
  Residual-Control   Outer-Iter.   Inner-Iter.     Column Row Layer    Maximum-Head-Change  Column Row Layer    Maximum-Flux-Residual          L2-NORM 
          0                 1           2             4    7     1      -0.5808275621E-01       4    7    1        -0.3041488260E+01      0.8457643862E+01
          0                 2           2             4    7     1       0.5649807375E-02       4    7    1         0.3041447391E+00      0.8457606505E+00
          0                 3           2             4    7     1      -0.3847315331E-03       4    7    1        -0.2129017961E-01      0.5920329694E-01
          0                 4           1             4    7     1       0.1530882499E-04       4    7    1         0.8707693655E-03      0.2421418761E-02

    ------------------------------------------------
       NWT REQUIRED            4 OUTER ITERATIONS 
       AND A TOTAL OF          7 INNER ITERATIONS.
    ------------------------------------------------

 NO OUTPUT CONTROL FOR STRESS PERIOD   33   TIME STEP   30



 STREAM LISTING     PERIOD     33   STEP       30

 LAYER ROW COL. STREAM  RCH.  FLOW INTO     FLOW TO   FLOW OUT OF   OVRLND.     DIRECT     STREAM       STREAM     STREAM     STREAM   STREAMBED  STREAMBED
                SEG.NO.  NO.  STRM. RCH.    AQUIFER    STRM. RCH.    RUNOFF     PRECIP       ET          HEAD       DEPTH      WIDTH   CONDCTNC.   GRADIENT

   1    1    1     1     1    1.9000E+01  2.1427E-01   1.8786E+01  0.000E+00  0.000E+00  0.000E+00  1.09413E+03  1.082E+00  1.166E+01  5.249E-02  1.361E+00
   1    2    2     1     2    1.8786E+01  3.3054E-01   1.8455E+01  0.000E+00  0.000E+00  0.000E+00  1.08914E+03  1.077E+00  1.158E+01  8.107E-02  1.359E+00
   1    3    3     1     3    1.8455E+01  2.8064E-01   1.8175E+01  0.000E+00  0.000E+00  0.000E+00  1.08349E+03  1.072E+00  1.149E+01  6.892E-02  1.357E+00
   1    3    4     1     4    1.8175E+01  2.5740E-01   1.7917E+01  0.000E+00  0.000E+00  0.000E+00  1.07848E+03  1.068E+00  1.140E+01  6.328E-02  1.356E+00
   1    4    5     2     1    1.5917E+01  3.0542E-01   1.5612E+01  0.000E+00  0.000E+00  0.000E+00  1.07285E+03  9.157E-01  1.200E+01  7.800E-02  1.305E+00
   1    5    6     2     2    1.5612E+01  2.3438E-01   1.5377E+01  0.000E+00  0.000E+00  0.000E+00  1.06742E+03  9.063E-01  1.200E+01  6.000E-02  1.302E+00
   1    6    6     2     3    1.5377E+01  2.3388E-01   1.5143E+01  0.000E+00  0.000E+00  0.000E+00  1.06269E+03  8.980E-01  1.200E+01  6.000E-02  1.299E+00
   1    7    6     2     4    1.5143E+01  2.3338E-01   1.4910E+01  0.000E+00  0.000E+00  0.000E+00  1.05797E+03  8.897E-01  1.200E+01  6.000E-02  1.297E+00
   1    8    6     2     5    1.4910E+01  2.3289E-01   1.4677E+01  0.000E+00  0.000E+00  0.000E+00  1.05324E+03  8.814E-01  1.200E+01  6.000E-02  1.294E+00
   1    3    5     3     1    2.0000E+00  2.8252E-01   1.7175E+00  0.000E+00  0.000E+00  0.000E+00  1.07555E+03  1.909E+00  9.636E+00  7.227E-02  1.955E+00
   1    3    6     3     2    1.7175E+00  2.4905E-01   1.4684E+00  0.000E+00  0.000E+00  0.000E+00  1.07264E+03  1.727E+00  8.909E+00  6.682E-02  1.864E+00
   1    3    7     3     3    1.4684E+00  1.9718E-01   1.2712E+00  0.000E+00  0.000E+00  0.000E+00  1.06987E+03  1.555E+00  8.218E+00  5.547E-02  1.777E+00
   1    4    8     3     4    1.2712E+00  2.2567E-01   1.0456E+00  0.000E+00  0.000E+00  0.000E+00  1.06682E+03  1.364E+00  7.455E+00  6.709E-02  1.682E+00
   1    5    8     3     5    1.0456E+00  1.5790E-01   8.8768E-01  0.000E+00  0.000E+00  0.000E+00  1.06362E+03  1.164E+00  6.655E+00  4.991E-02  1.582E+00
   1    6    8     3     6    8.8768E-01  5.5980E-02   8.3170E-01  0.000E+00  0.000E+00  0.000E+00  1.06158E+03  1.036E+00  6.145E+00  1.844E-02  1.518E+00
   1    5   10     4     1    1.0000E+01  9.0919E-02   9.9091E+00  0.000E+00  0.000E+00  0.000E+00  1.07836E+03  6.368E-01  1.000E+01  2.500E-02  1.212E+00
   1    5    9     4     2    9.9091E+00  1.8158E-01   9.7275E+00  0.000E+00  0.000E+00  0.000E+00  1.07154E+03  6.315E-01  1.000E+01  5.000E-02  1.211E+00
   1    6    8     4     3    9.7275E+00  1.2689E-01   9.6006E+00  0.000E+00  0.000E+00  0.000E+00  1.06381E+03  6.256E-01  1.000E+01  3.500E-02  1.209E+00
   1    6    8     5     1    1.0432E+01  2.2686E-01   1.0205E+01  0.000E+00  0.000E+00  0.000E+00  1.05868E+03  6.790E-01  1.542E+01  6.166E-02  1.226E+00
   1    7    7     5     2    1.0205E+01  2.7894E-01   9.9265E+00  0.000E+00  0.000E+00  0.000E+00  1.05417E+03  6.732E-01  1.519E+01  7.594E-02  1.224E+00
   1    8    7     5     3    9.9265E+00  1.9221E-01   9.7343E+00  0.000E+00  0.000E+00  0.000E+00  1.04992E+03  6.676E-01  1.497E+01  5.241E-02  1.223E+00
   1    8    6     5     4    9.7343E+00  1.3577E-01   9.5985E+00  0.000E+00  0.000E+00  0.000E+00  1.04691E+03  6.637E-01  1.482E+01  3.706E-02  1.221E+00
   1    9    6     6     1    2.4276E+01  2.5176E-01   2.4024E+01  0.000E+00  0.000E+00  0.000E+00  1.04392E+03  1.196E+00  1.200E+01  6.000E-02  1.399E+00
   1   10    7     6     2    2.4024E+01  2.5131E-01   2.3773E+01  0.000E+00  0.000E+00  0.000E+00  1.03937E+03  1.188E+00  1.200E+01  6.000E-02  1.396E+00
   1   11    7     6     3    2.3773E+01  2.5086E-01   2.3522E+01  0.000E+00  0.000E+00  0.000E+00  1.03482E+03  1.181E+00  1.200E+01  6.000E-02  1.394E+00
   1   12    7     6     4    2.3522E+01  2.5041E-01   2.3271E+01  0.000E+00  0.000E+00  0.000E+00  1.03026E+03  1.173E+00  1.200E+01  6.000E-02  1.391E+00
   1   13    7     6     5    2.3271E+01  6.8472E-03   2.3265E+01  0.000E+00  0.000E+00  0.000E+00  1.02708E+03  1.170E+00  1.200E+01  2.400E-02  9.510E-02
   1   14    9     7     1    1.5000E+02  1.3516E+00   1.4865E+02  0.000E+00  0.000E+00  0.000E+00  1.03987E+03  2.288E+00  5.529E+01  5.593E-01  8.056E-01
   1   13    8     7     2    1.4865E+02  1.9137E+00   1.4673E+02  0.000E+00  0.000E+00  0.000E+00  1.03478E+03  2.279E+00  5.526E+01  6.148E-01  1.038E+00
   1   13    7     7     3    1.4673E+02  1.6169E+00   1.4512E+02  0.000E+00  0.000E+00  0.000E+00  1.02969E+03  2.270E+00  5.521E+01  5.584E-01  9.652E-01
   1   13    6     8     1    1.6838E+02  1.0559E+00   1.6733E+02  0.000E+00  0.000E+00  0.000E+00  1.02481E+03  2.938E+00  4.260E+01  4.341E-01  8.107E-01
   1   13    5     8     2    1.6733E+02  2.9998E-01   1.6703E+02  0.000E+00  0.000E+00  0.000E+00  1.01856E+03  2.934E+00  4.254E+01  4.335E-01  2.307E-01
   1   13    4     8     3    1.6703E+02 -2.0222E+00   1.6905E+02  0.000E+00  0.000E+00  0.000E+00  1.01231E+03  2.939E+00  4.262E+01  4.343E+00 -1.552E-01
   1   13    3     8     4    1.6905E+02 -3.4452E+00   1.7249E+02  0.000E+00  0.000E+00  0.000E+00  1.00608E+03  2.957E+00  4.288E+01  4.370E+00 -2.628E-01
   1   13    2     8     5    1.7249E+02 -2.5267E+00   1.7502E+02  0.000E+00  0.000E+00  0.000E+00  9.99852E+02  2.977E+00  4.316E+01  4.398E+00 -1.915E-01
   1   13    1     8     6    1.7502E+02 -1.9697E+00   1.7699E+02  0.000E+00  0.000E+00  0.000E+00  9.94866E+02  2.991E+00  4.337E+01  2.652E+00 -2.476E-01





UNSATURATED ZONE PACKAGE VOLUMETRIC BUDGET FOR  TIME STEP    30 STRESS PERIOD   33
  ------------------------------------------------------------------------------



     CUMULATIVE VOLUMES      L**3       RATES FOR THIS TIME STEP      L**3/T
     ------------------                 ------------------------

           IN:                                      IN:
           ---                                      ---
        INFILTRATION =  1347016948.0291          INFILTRATION =          49.5675

          OUT:                                     OUT:
          ----                                     ----
              UZF ET =  1233162846.0630                UZF ET =          49.5675
        UZF RECHARGE =    75855283.4546          UZF RECHARGE =       0.0000E+00

            IN - OUT =    37998818.5114              IN - OUT =       0.0000E+00

          STORAGE:                                 STORAGE:
          --------                                 --------
      STORAGE CHANGE =    37998824.3864        STORAGE CHANGE =       8.0046E-15

 PERCENT DISCREPANCY IS DIFFERENCE BETWEEN IN-OUT MINUS CHANGE IN STORAGE
 DIVIDED BY THE AVERAGE OF IN AND OUT TIMES 100

 PERCENT DISCREPANCY =           0.00     PERCENT DISCREPANCY =           0.00






1
  VOLUMETRIC BUDGET FOR AGRICULTURAL FIELDS AT  END OF TIME STEP   30, STRESS PERIOD  33
  ------------------------------------------------------------------------------

     CUMULATIVE VOLUMES      L**3       RATES FOR THIS TIME STEP      L**3/T
     ------------------                 ------------------------

           IN:                                      IN:
           ---                                      ---
               AG WELLS  =  1275616128.0000                 AG WELLS  =          48.7200
      DIVERSION SEGMENTS =           0.0000        DIVERSION SEGMENTS =           0.0000
           GW IRRIGATION =           0.0000             GW IRRIGATION =           0.0000
           SW IRRIGATION =           0.0000             SW IRRIGATION =           0.0000
        SYSTEM LOSSES GW =           0.0000          SYSTEM LOSSES GW =           0.0000
        SYSTEM LOSSES SW =           0.0000          SYSTEM LOSSES SW =           0.0000

                TOTAL IN =  1275616128.0000                  TOTAL IN =          48.7200

          OUT:                                     OUT:
          ----                                     ----
               AG WELLS  =           0.0000                 AG WELLS  =           0.0000
      DIVERSION SEGMENTS =           0.0000        DIVERSION SEGMENTS =           0.0000
           GW IRRIGATION =  1275616128.0000             GW IRRIGATION =          48.7200
           SW IRRIGATION =           0.0000             SW IRRIGATION =           0.0000
        SYSTEM LOSSES GW =           0.0000          SYSTEM LOSSES GW =           0.0000
        SYSTEM LOSSES SW =           0.0000          SYSTEM LOSSES SW =           0.0000

               TOTAL OUT =  1275616128.0000                 TOTAL OUT =          48.7200

                IN - OUT =           0.0000                  IN - OUT =           0.0000

     PERCENT DISCREPANCY =           0.00         PERCENT DISCREPANCY =           0.00



1
  VOLUMETRIC BUDGET FOR ENTIRE MODEL AT END OF TIME STEP   30, STRESS PERIOD  33
  ------------------------------------------------------------------------------

     CUMULATIVE VOLUMES      L**3       RATES FOR THIS TIME STEP      L**3/T
     ------------------                 ------------------------

           IN:                                      IN:
           ---                                      ---
             STORAGE     =  1579090048.0000               STORAGE     =          46.7769
       CONSTANT HEAD     =           0.0000         CONSTANT HEAD     =           0.0000
     HEAD DEP BOUNDS     =    24068318.0000       HEAD DEP BOUNDS     =           0.2868
      STREAM LEAKAGE     =  1034178112.0000        STREAM LEAKAGE     =          11.9736
        UZF RECHARGE     =    75855336.0000          UZF RECHARGE     =           0.0000
               GW ET     =           0.0000                 GW ET     =           0.0000
     SURFACE LEAKAGE     =           0.0000       SURFACE LEAKAGE     =           0.0000
           AG WELLS      =           0.0000             AG WELLS      =           0.0000

                TOTAL IN =  2713191936.0000                  TOTAL IN =          59.0373

          OUT:                                     OUT:
          ----                                     ----
             STORAGE     =   527598432.0000               STORAGE     =       6.4585E-02
       CONSTANT HEAD     =           0.0000         CONSTANT HEAD     =           0.0000
     HEAD DEP BOUNDS     =    24672044.0000       HEAD DEP BOUNDS     =           0.2891
      STREAM LEAKAGE     =   867686464.0000        STREAM LEAKAGE     =           9.9638
        UZF RECHARGE     =           0.0000          UZF RECHARGE     =           0.0000
               GW ET     =    17607600.0000                 GW ET     =           0.0000
     SURFACE LEAKAGE     =           0.0000       SURFACE LEAKAGE     =           0.0000
           AG WELLS      =  1275616128.0000             AG WELLS      =          48.7200

               TOTAL OUT =  2713180672.0000                 TOTAL OUT =          59.0375

                IN - OUT =       11264.0000                  IN - OUT =      -1.6785E-04

     PERCENT DISCREPANCY =           0.00         PERCENT DISCREPANCY =          -0.00






         TIME SUMMARY AT END OF TIME STEP   30 IN STRESS PERIOD   33
                    SECONDS     MINUTES      HOURS       DAYS        YEARS
                    -----------------------------------------------------------
   TIME STEP LENGTH  87667.      1461.1      24.352      1.0147     2.77799E-03
 STRESS PERIOD TIME 2.63000E+06  43833.      730.56      30.440     8.33397E-02
         TOTAL TIME 8.42463E+07 1.40410E+06  23402.      975.07      2.6696    
1
1
                            STRESS PERIOD NO.   34, LENGTH =   2630000.    
                            -----------------------------------------------

                              NUMBER OF TIME STEPS =    30

                               MULTIPLIER FOR DELT =     1.000

                            INITIAL TIME STEP SIZE =   87666.66    

 REUSING NON-PARAMETER GHB CELLS FROM LAST STRESS PERIOD

      2 GHB CELLS

 REUSING STREAM SEGMENT DATA FROM LAST STRESS PERIOD



            AREAL INFILTRATION RATE
 READING ON UNIT   19 WITH FORMAT: (FREE)              

            1           2           3           4           5           6           7           8           9          10
 ........................................................................................................................
   1   1.0000E-10  2.0000E-10   0.000       0.000       0.000       0.000       0.000       0.000       0.000       0.000    
   2   2.0000E-10  1.0000E-10  2.0000E-10   0.000       0.000      8.0000E-10  8.0000E-10  5.0000E-10   0.000       0.000    
   3    0.000      5.0000E-10  1.0000E-10  1.0000E-10  8.0000E-10  8.0000E-10  5.0000E-10  5.0000E-10   0.000       0.000    
   4   8.0000E-10  5.0000E-10  1.0000E-10  1.0000E-10  1.0000E-10  1.0000E-10  1.0000E-10  1.0000E-10  2.0000E-10   0.000    
   5   8.0000E-10  5.0000E-10  1.0000E-10  1.0000E-10  1.0000E-10  1.0000E-10  1.0000E-10  1.0000E-10  1.0000E-10  1.0000E-10
   6   8.0000E-10  5.0000E-10  5.0000E-10  2.0000E-10  2.0000E-10  1.0000E-10  1.0000E-10  1.0000E-10  1.0000E-10  5.0000E-10
   7   8.0000E-10  5.0000E-10  5.0000E-10  2.0000E-10  2.0000E-10  1.0000E-10  1.0000E-10  2.0000E-10  2.0000E-10   0.000    
   8    0.000      5.0000E-10  5.0000E-10  2.0000E-10  2.0000E-10  1.0000E-10  1.0000E-10  2.0000E-10  5.0000E-10   0.000    
   9    0.000      5.0000E-10  5.0000E-10  2.0000E-10  2.0000E-10  1.0000E-10  1.0000E-10  2.0000E-10  5.0000E-10   0.000    
  10    0.000      5.0000E-10  5.0000E-10  2.0000E-10  2.0000E-10  1.0000E-10  1.0000E-10  2.0000E-10  5.0000E-10  8.0000E-10
  11    0.000      1.0000E-10  1.0000E-10  1.0000E-10  1.0000E-10  1.0000E-10  1.0000E-10  2.0000E-10  5.0000E-10   0.000    
  12   1.0000E-10  1.0000E-10  1.0000E-10  1.0000E-10  1.0000E-10  1.0000E-10  1.0000E-10  1.0000E-10  2.0000E-10   0.000    
  13   1.0000E-10  1.0000E-10  2.0000E-10  2.0000E-10  2.0000E-10  2.0000E-10  2.0000E-10  1.0000E-10  1.0000E-10   0.000    
  14    0.000      2.0000E-10  5.0000E-10  5.0000E-10  5.0000E-10  5.0000E-10  5.0000E-10  2.0000E-10  1.0000E-10   0.000    
  15    0.000       0.000      8.0000E-10  8.0000E-10  8.0000E-10  8.0000E-10   0.000       0.000       0.000       0.000    

                  ET RATE =  7.500000E-08

 USING ET EXTINCTION DEPTH FROM PREVIOUS STRESS PERIOD. CURRENT PERIOD IS:      34

 USING EXTINCTION WATER CONTENT FROM PREVIOUS STRESS PERIOD. CURRENT PERIOD IS:      34

 USING AIR ENTRY PRESSURE FROM PREVIOUS STRESS PERIOD. CURRENT PERIOD IS:      34

 USING ROOT PRESSURE HEAD FROM PREVIOUS STRESS PERIOD. CURRENT PERIOD IS:      34

 USING ROOT ACTIVITY FROM PREVIOUS STRESS PERIOD. CURRENT PERIOD IS:      34

 PROCESSING AG STRESS PERIOD DATA

 READING AG STRESS PERIOD DATA

 READING IRRIGATION WELL

 END PROCESSING AG STRESS PERIOD DATA OPTIONS
 
 SOLVING FOR HEAD 
                                                   Max.-Head-Change                         Max.-Flux-Residual
  Residual-Control   Outer-Iter.   Inner-Iter.     Column Row Layer    Maximum-Head-Change  Column Row Layer    Maximum-Flux-Residual          L2-NORM 
          0                 1           2             5    8     1       0.7572364185E-01       5    8    1         0.4116594254E+01      0.1089636958E+02
          0                 2           2             5    8     1      -0.7365721718E-02       5    8    1        -0.4116508259E+00      0.1089612110E+01
          0                 3           2             5    8     1       0.5015795736E-03       5    8    1         0.2881565275E-01      0.7627311084E-01
          0                 4           1             5    8     1      -0.1995831518E-04       5    8    1        -0.1178561459E-02      0.3119572720E-02

    ------------------------------------------------
       NWT REQUIRED            4 OUTER ITERATIONS 
       AND A TOTAL OF          7 INNER ITERATIONS.
    ------------------------------------------------

 NO OUTPUT CONTROL FOR STRESS PERIOD   34   TIME STEP    1
 
 SOLVING FOR HEAD 
                                                   Max.-Head-Change                         Max.-Flux-Residual
  Residual-Control   Outer-Iter.   Inner-Iter.     Column Row Layer    Maximum-Head-Change  Column Row Layer    Maximum-Flux-Residual          L2-NORM 
          0                 1           2             5    8     1       0.7244194513E-01       5    8    1         0.3934974847E+01      0.1056044965E+02
          0                 2           2             5    8     1      -0.7046510491E-02       5    8    1        -0.3934894660E+00      0.1056022567E+01
          0                 3           2             5    8     1       0.4798423910E-03       5    8    1         0.2754435153E-01      0.7392182046E-01
          0                 4           1             5    8     1      -0.1909337303E-04       5    8    1        -0.1126565198E-02      0.3023406029E-02

    ------------------------------------------------
       NWT REQUIRED            4 OUTER ITERATIONS 
       AND A TOTAL OF          7 INNER ITERATIONS.
    ------------------------------------------------

 NO OUTPUT CONTROL FOR STRESS PERIOD   34   TIME STEP    2
 
 SOLVING FOR HEAD 
                                                   Max.-Head-Change                         Max.-Flux-Residual
  Residual-Control   Outer-Iter.   Inner-Iter.     Column Row Layer    Maximum-Head-Change  Column Row Layer    Maximum-Flux-Residual          L2-NORM 
          0                 1           2             5    8     1       0.6935826520E-01       5    8    1         0.3764441836E+01      0.1024238420E+02
          0                 2           2             5    8     1      -0.6746560267E-02       5    8    1        -0.3764367021E+00      0.1024218231E+01
          0                 3           2             5    8     1       0.4594168170E-03       5    8    1         0.2635065245E-01      0.7169549368E-01
          0                 4           1             5    8     1      -0.1828062076E-04       5    8    1        -0.1077742868E-02      0.2932348182E-02

    ------------------------------------------------
       NWT REQUIRED            4 OUTER ITERATIONS 
       AND A TOTAL OF          7 INNER ITERATIONS.
    ------------------------------------------------

 NO OUTPUT CONTROL FOR STRESS PERIOD   34   TIME STEP    3
 
 SOLVING FOR HEAD 
                                                   Max.-Head-Change                         Max.-Flux-Residual
  Residual-Control   Outer-Iter.   Inner-Iter.     Column Row Layer    Maximum-Head-Change  Column Row Layer    Maximum-Flux-Residual          L2-NORM 
          0                 1           2             5    8     1       0.6645849796E-01       5    8    1         0.3604199007E+01      0.9940885694E+01
          0                 2           2             5    8     1      -0.6464499158E-02       5    8    1        -0.3604129164E+00      0.9940703705E+00
          0                 3           2             5    8     1       0.4402094308E-03       5    8    1         0.2522898225E-01      0.6958512263E-01
          0                 4           1             5    8     1      -0.1751634089E-04       5    8    1        -0.1031866501E-02      0.2846033451E-02

    ------------------------------------------------
       NWT REQUIRED            4 OUTER ITERATIONS 
       AND A TOTAL OF          7 INNER ITERATIONS.
    ------------------------------------------------

 NO OUTPUT CONTROL FOR STRESS PERIOD   34   TIME STEP    4
 
 SOLVING FOR HEAD 
                                                   Max.-Head-Change                         Max.-Flux-Residual
  Residual-Control   Outer-Iter.   Inner-Iter.     Column Row Layer    Maximum-Head-Change  Column Row Layer    Maximum-Flux-Residual          L2-NORM 
          0                 1           2             5    7     1       0.6424328830E-01       5    8    1         0.3453515091E+01      0.9654777723E+01
          0                 2           2             5    7     1      -0.6249069202E-02       5    8    1        -0.3453449851E+00      0.9654613708E+00
          0                 3           2             5    7     1       0.4255389651E-03       5    8    1         0.2417422227E-01      0.6758247395E-01
          0                 4           1             5    7     1      -0.1693259376E-04       5    8    1        -0.9887267825E-03      0.2764125466E-02

    ------------------------------------------------
       NWT REQUIRED            4 OUTER ITERATIONS 
       AND A TOTAL OF          7 INNER ITERATIONS.
    ------------------------------------------------

 NO OUTPUT CONTROL FOR STRESS PERIOD   34   TIME STEP    5
 
 SOLVING FOR HEAD 
                                                   Max.-Head-Change                         Max.-Flux-Residual
  Residual-Control   Outer-Iter.   Inner-Iter.     Column Row Layer    Maximum-Head-Change  Column Row Layer    Maximum-Flux-Residual          L2-NORM 
          0                 1           2             5    7     1       0.6283503354E-01       5    7    1         0.3338727027E+01      0.9382976134E+01
          0                 2           2             5    7     1      -0.6112092209E-02       5    7    1        -0.3338698214E+00      0.9382828343E+00
          0                 3           2             5    7     1       0.4162112637E-03       5    7    1         0.2337092599E-01      0.6567996322E-01
          0                 4           1             5    7     1      -0.1656143642E-04       5    7    1        -0.9558720740E-03      0.2686314317E-02

    ------------------------------------------------
       NWT REQUIRED            4 OUTER ITERATIONS 
       AND A TOTAL OF          7 INNER ITERATIONS.
    ------------------------------------------------

 NO OUTPUT CONTROL FOR STRESS PERIOD   34   TIME STEP    6
 
 SOLVING FOR HEAD 
                                                   Max.-Head-Change                         Max.-Flux-Residual
  Residual-Control   Outer-Iter.   Inner-Iter.     Column Row Layer    Maximum-Head-Change  Column Row Layer    Maximum-Flux-Residual          L2-NORM 
          0                 1           2             5    7     1       0.6145333652E-01       5    7    1         0.3265540351E+01      0.9124500545E+01
          0                 2           2             5    7     1      -0.5977697573E-02       5    7    1        -0.3265516136E+00      0.9124367374E+00
          0                 3           2             5    7     1       0.4070594211E-03       5    7    1         0.2285864688E-01      0.6387071973E-01
          0                 4           1             5    7     1      -0.1619727631E-04       5    7    1        -0.9349198574E-03      0.2612314980E-02

    ------------------------------------------------
       NWT REQUIRED            4 OUTER ITERATIONS 
       AND A TOTAL OF          7 INNER ITERATIONS.
    ------------------------------------------------

 NO OUTPUT CONTROL FOR STRESS PERIOD   34   TIME STEP    7
 
 SOLVING FOR HEAD 
                                                   Max.-Head-Change                         Max.-Flux-Residual
  Residual-Control   Outer-Iter.   Inner-Iter.     Column Row Layer    Maximum-Head-Change  Column Row Layer    Maximum-Flux-Residual          L2-NORM 
          0                 1           2             5    7     1       0.6009898732E-01       5    7    1         0.3193730667E+01      0.8878434531E+01
          0                 2           2             5    7     1      -0.5845962272E-02       5    7    1        -0.3193710464E+00      0.8878314532E+00
          0                 3           2             5    7     1       0.3980886768E-03       5    7    1         0.2235600314E-01      0.6214833321E-01
          0                 4           1             5    7     1      -0.1584032215E-04       5    7    1        -0.9143617076E-03      0.2541868528E-02

    ------------------------------------------------
       NWT REQUIRED            4 OUTER ITERATIONS 
       AND A TOTAL OF          7 INNER ITERATIONS.
    ------------------------------------------------

 NO OUTPUT CONTROL FOR STRESS PERIOD   34   TIME STEP    8
 
 SOLVING FOR HEAD 
                                                   Max.-Head-Change                         Max.-Flux-Residual
  Residual-Control   Outer-Iter.   Inner-Iter.     Column Row Layer    Maximum-Head-Change  Column Row Layer    Maximum-Flux-Residual          L2-NORM 
          0                 1           2             4    7     1       0.5936807440E-01       5    7    1         0.3123347040E+01      0.8643937741E+01
          0                 2           2             4    7     1      -0.5774888646E-02       5    7    1        -0.3123330336E+00      0.8643829650E+00
          0                 3           2             4    7     1       0.3932485896E-03       5    7    1         0.2186333872E-01      0.6050692860E-01
          0                 4           1             4    7     1      -0.1564772875E-04       5    7    1        -0.8942117292E-03      0.2474735608E-02

    ------------------------------------------------
       NWT REQUIRED            4 OUTER ITERATIONS 
       AND A TOTAL OF          7 INNER ITERATIONS.
    ------------------------------------------------

 NO OUTPUT CONTROL FOR STRESS PERIOD   34   TIME STEP    9
 
 SOLVING FOR HEAD 
                                                   Max.-Head-Change                         Max.-Flux-Residual
  Residual-Control   Outer-Iter.   Inner-Iter.     Column Row Layer    Maximum-Head-Change  Column Row Layer    Maximum-Flux-Residual          L2-NORM 
          0                 1           2             4    7     1       0.5885450239E-01       4    7    1         0.3084574441E+01      0.8420260038E+01
          0                 2           2             4    7     1      -0.5724937214E-02       4    7    1        -0.3084574518E+00      0.8420162678E+00
          0                 3           2             4    7     1       0.3898470321E-03       4    7    1         0.2159203201E-01      0.5894124714E-01
          0                 4           1             4    7     1      -0.1551237795E-04       4    7    1        -0.8831153398E-03      0.2410699598E-02

    ------------------------------------------------
       NWT REQUIRED            4 OUTER ITERATIONS 
       AND A TOTAL OF          7 INNER ITERATIONS.
    ------------------------------------------------

 NO OUTPUT CONTROL FOR STRESS PERIOD   34   TIME STEP   10
 
 SOLVING FOR HEAD 
                                                   Max.-Head-Change                         Max.-Flux-Residual
  Residual-Control   Outer-Iter.   Inner-Iter.     Column Row Layer    Maximum-Head-Change  Column Row Layer    Maximum-Flux-Residual          L2-NORM 
          0                 1           2             4    7     1       0.5831330006E-01       4    7    1         0.3057881748E+01      0.8206676899E+01
          0                 2           2             4    7     1      -0.5672297531E-02       4    7    1        -0.3057884830E+00      0.8206589258E+00
          0                 3           2             4    7     1       0.3862624204E-03       4    7    1         0.2140520126E-01      0.5744622710E-01
          0                 4           1             4    7     1      -0.1536974315E-04       4    7    1        -0.8754739656E-03      0.2349554431E-02

    ------------------------------------------------
       NWT REQUIRED            4 OUTER ITERATIONS 
       AND A TOTAL OF          7 INNER ITERATIONS.
    ------------------------------------------------

 NO OUTPUT CONTROL FOR STRESS PERIOD   34   TIME STEP   11
 
 SOLVING FOR HEAD 
                                                   Max.-Head-Change                         Max.-Flux-Residual
  Residual-Control   Outer-Iter.   Inner-Iter.     Column Row Layer    Maximum-Head-Change  Column Row Layer    Maximum-Flux-Residual          L2-NORM 
          0                 1           2             4    7     1       0.5774755013E-01       4    7    1         0.3029770872E+01      0.8002544410E+01
          0                 2           2             4    7     1      -0.5617269515E-02       4    7    1        -0.3029776613E+00      0.8002465499E+00
          0                 3           2             4    7     1       0.3825151769E-03       4    7    1         0.2120844116E-01      0.5601734871E-01
          0                 4           1             4    7     1      -0.1522063655E-04       4    7    1        -0.8674264643E-03      0.2291112204E-02

    ------------------------------------------------
       NWT REQUIRED            4 OUTER ITERATIONS 
       AND A TOTAL OF          7 INNER ITERATIONS.
    ------------------------------------------------

 NO OUTPUT CONTROL FOR STRESS PERIOD   34   TIME STEP   12
 
 SOLVING FOR HEAD 
                                                   Max.-Head-Change                         Max.-Flux-Residual
  Residual-Control   Outer-Iter.   Inner-Iter.     Column Row Layer    Maximum-Head-Change  Column Row Layer    Maximum-Flux-Residual          L2-NORM 
          0                 1           2             4    7     1       0.5715961751E-01       4    7    1         0.3000372802E+01      0.7807258484E+01
          0                 2           2             4    7     1      -0.5560083252E-02       4    7    1        -0.3000380887E+00      0.7807071114E+00
          0                 3           2             4    7     1       0.3786209698E-03       4    7    1         0.2100266876E-01      0.5464957995E-01
          0                 4           1             4    7     1      -0.1506568298E-04       4    7    1        -0.8590103805E-03      0.2235170965E-02

    ------------------------------------------------
       NWT REQUIRED            4 OUTER ITERATIONS 
       AND A TOTAL OF          7 INNER ITERATIONS.
    ------------------------------------------------

 NO OUTPUT CONTROL FOR STRESS PERIOD   34   TIME STEP   13
 
 SOLVING FOR HEAD 
                                                   Max.-Head-Change                         Max.-Flux-Residual
  Residual-Control   Outer-Iter.   Inner-Iter.     Column Row Layer    Maximum-Head-Change  Column Row Layer    Maximum-Flux-Residual          L2-NORM 
          0                 1           2             5    8     1       0.7367804680E-01       5    8    1         0.4005144412E+01      0.8258176952E+01
          0                 2           2             5    8     1       0.7391850583E-02       5    8    1         0.4138940450E+00      0.8323815232E+00
          0                 3           2             5    8     1      -0.7186598728E-03       5    8    1        -0.4119874951E-01      0.6529407777E-01
          0                 4           1             5    8     1       0.4890288055E-04       5    8    1         0.2870317698E-02      0.3545978199E-02

    ------------------------------------------------
       NWT REQUIRED            4 OUTER ITERATIONS 
       AND A TOTAL OF          7 INNER ITERATIONS.
    ------------------------------------------------

 NO OUTPUT CONTROL FOR STRESS PERIOD   34   TIME STEP   14
 
 SOLVING FOR HEAD 
                                                   Max.-Head-Change                         Max.-Flux-Residual
  Residual-Control   Outer-Iter.   Inner-Iter.     Column Row Layer    Maximum-Head-Change  Column Row Layer    Maximum-Flux-Residual          L2-NORM 
          0                 1           2             5    8     1       0.8468571442E-01       5    8    1         0.4611103688E+01      0.8449844485E+01
          0                 2           2             5    8     1      -0.8233480532E-02       5    8    1        -0.4608778168E+00      0.8448493337E+00
          0                 3           2             5    8     1       0.5602656833E-03       5    8    1         0.3223790166E-01      0.5912669783E-01
          0                 4           1             5    8     1      -0.2226684864E-04       5    8    1        -0.1316934889E-02      0.2417414208E-02

    ------------------------------------------------
       NWT REQUIRED            4 OUTER ITERATIONS 
       AND A TOTAL OF          7 INNER ITERATIONS.
    ------------------------------------------------

 NO OUTPUT CONTROL FOR STRESS PERIOD   34   TIME STEP   15
 
 SOLVING FOR HEAD 
                                                   Max.-Head-Change                         Max.-Flux-Residual
  Residual-Control   Outer-Iter.   Inner-Iter.     Column Row Layer    Maximum-Head-Change  Column Row Layer    Maximum-Flux-Residual          L2-NORM 
          0                 1           2             5    8     1       0.8089359290E-01       5    8    1         0.4400674489E+01      0.8221782163E+01
          0                 2           2             5    8     1      -0.7864786361E-02       5    8    1        -0.4398446667E+00      0.8220516521E+00
          0                 3           2             5    8     1       0.5351771526E-03       5    8    1         0.3076664164E-01      0.5753166291E-01
          0                 4           1             5    8     1      -0.2126974554E-04       5    8    1        -0.1256831772E-02      0.2352230725E-02

    ------------------------------------------------
       NWT REQUIRED            4 OUTER ITERATIONS 
       AND A TOTAL OF          7 INNER ITERATIONS.
    ------------------------------------------------

 NO OUTPUT CONTROL FOR STRESS PERIOD   34   TIME STEP   16
 
 SOLVING FOR HEAD 
                                                   Max.-Head-Change                         Max.-Flux-Residual
  Residual-Control   Outer-Iter.   Inner-Iter.     Column Row Layer    Maximum-Head-Change  Column Row Layer    Maximum-Flux-Residual          L2-NORM 
          0                 1           2             5    8     1       0.7733994737E-01       5    8    1         0.4203623375E+01      0.8006114991E+01
          0                 2           2             5    8     1      -0.7519279227E-02       5    8    1        -0.4201487727E+00      0.8004928530E+00
          0                 3           2             5    8     1       0.5116664212E-03       5    8    1         0.2938892227E-01      0.5602329217E-01
          0                 4           1             5    8     1      -0.2033534955E-04       5    8    1        -0.1200549968E-02      0.2290590773E-02

    ------------------------------------------------
       NWT REQUIRED            4 OUTER ITERATIONS 
       AND A TOTAL OF          7 INNER ITERATIONS.
    ------------------------------------------------

 NO OUTPUT CONTROL FOR STRESS PERIOD   34   TIME STEP   17
 
 SOLVING FOR HEAD 
                                                   Max.-Head-Change                         Max.-Flux-Residual
  Residual-Control   Outer-Iter.   Inner-Iter.     Column Row Layer    Maximum-Head-Change  Column Row Layer    Maximum-Flux-Residual          L2-NORM 
          0                 1           2             5    8     1       0.7400724456E-01       5    8    1         0.4018960054E+01      0.7801800557E+01
          0                 2           2             5    8     1      -0.7195254269E-02       5    8    1        -0.4016911394E+00      0.7800686993E+00
          0                 3           2             5    8     1       0.4896174798E-03       5    8    1         0.2809781886E-01      0.5459428463E-01
          0                 4           1             5    8     1      -0.1945904984E-04       5    8    1        -0.1147806589E-02      0.2232194988E-02

    ------------------------------------------------
       NWT REQUIRED            4 OUTER ITERATIONS 
       AND A TOTAL OF          7 INNER ITERATIONS.
    ------------------------------------------------

 NO OUTPUT CONTROL FOR STRESS PERIOD   34   TIME STEP   18
 
 SOLVING FOR HEAD 
                                                   Max.-Head-Change                         Max.-Flux-Residual
  Residual-Control   Outer-Iter.   Inner-Iter.     Column Row Layer    Maximum-Head-Change  Column Row Layer    Maximum-Flux-Residual          L2-NORM 
          0                 1           2             5    8     1       0.7087938596E-01       5    8    1         0.3845775476E+01      0.7607921153E+01
          0                 2           2             5    8     1      -0.6891146151E-02       5    8    1        -0.3843808938E+00      0.7606875589E+00
          0                 3           2             5    8     1       0.4689238139E-03       5    8    1         0.2688697494E-01      0.5323823890E-01
          0                 4           1             5    8     1      -0.1863661360E-04       5    8    1        -0.1098341979E-02      0.2176770466E-02

    ------------------------------------------------
       NWT REQUIRED            4 OUTER ITERATIONS 
       AND A TOTAL OF          7 INNER ITERATIONS.
    ------------------------------------------------

 NO OUTPUT CONTROL FOR STRESS PERIOD   34   TIME STEP   19
 
 SOLVING FOR HEAD 
                                                   Max.-Head-Change                         Max.-Flux-Residual
  Residual-Control   Outer-Iter.   Inner-Iter.     Column Row Layer    Maximum-Head-Change  Column Row Layer    Maximum-Flux-Residual          L2-NORM 
          0                 1           2             5    8     1       0.6794171920E-01       5    8    1         0.3683242756E+01      0.7423649227E+01
          0                 2           2             5    8     1      -0.6605530160E-02       5    8    1        -0.3681353768E+00      0.7422666353E+00
          0                 3           2             5    8     1       0.4494884773E-03       5    8    1         0.2575060852E-01      0.5194935746E-01
          0                 4           1             5    8     1      -0.1786418765E-04       5    8    1        -0.1051919912E-02      0.2124095696E-02

    ------------------------------------------------
       NWT REQUIRED            4 OUTER ITERATIONS 
       AND A TOTAL OF          7 INNER ITERATIONS.
    ------------------------------------------------

 NO OUTPUT CONTROL FOR STRESS PERIOD   34   TIME STEP   20
 
 SOLVING FOR HEAD 
                                                   Max.-Head-Change                         Max.-Flux-Residual
  Residual-Control   Outer-Iter.   Inner-Iter.     Column Row Layer    Maximum-Head-Change  Column Row Layer    Maximum-Flux-Residual          L2-NORM 
          0                 1           2             5    8     1       0.6518050087E-01       5    8    1         0.3530586661E+01      0.7248224737E+01
          0                 2           2             4    7     1      -0.5092157948E-02       4    7    1        -0.2752725463E+00      0.6333408900E+00
          0                 3           2             4    7     1       0.3466925954E-03       4    7    1         0.1926907305E-01      0.4496545443E-01
          0                 4           1             5    8     1      -0.3385312450E-04       5    8    1        -0.1901261023E-02      0.2628152641E-02

    ------------------------------------------------
       NWT REQUIRED            4 OUTER ITERATIONS 
       AND A TOTAL OF          7 INNER ITERATIONS.
    ------------------------------------------------

 NO OUTPUT CONTROL FOR STRESS PERIOD   34   TIME STEP   21
 
 SOLVING FOR HEAD 
                                                   Max.-Head-Change                         Max.-Flux-Residual
  Residual-Control   Outer-Iter.   Inner-Iter.     Column Row Layer    Maximum-Head-Change  Column Row Layer    Maximum-Flux-Residual          L2-NORM 
          0                 1           2             5    8     1       0.6224910332E-01       5    8    1         0.3368398099E+01      0.7074901439E+01
          0                 2           2             5    8     1       0.1537172694E-01       5    8    1         0.8548757857E+00      0.1057302614E+01
          0                 3           2             5    8     1       0.3795858524E-02       5    8    1         0.2089701529E+00      0.2135163421E+00
          0                 4           1             5    8     1       0.9373437952E-03       5    8    1         0.5173364295E-01      0.5176094955E-01
          0                 5           1             5    8     1       0.2314664207E-03       5    8    1         0.1277024292E-01      0.1277062279E-01
          0                 6           1             5    8     1       0.5715801592E-04       5    8    1         0.3153624643E-02      0.3153655452E-02

    ------------------------------------------------
       NWT REQUIRED            6 OUTER ITERATIONS 
       AND A TOTAL OF          9 INNER ITERATIONS.
    ------------------------------------------------

 NO OUTPUT CONTROL FOR STRESS PERIOD   34   TIME STEP   22
 
 SOLVING FOR HEAD 
                                                   Max.-Head-Change                         Max.-Flux-Residual
  Residual-Control   Outer-Iter.   Inner-Iter.     Column Row Layer    Maximum-Head-Change  Column Row Layer    Maximum-Flux-Residual          L2-NORM 
          0                 1           2             5    8     1       0.5818196483E-01       5    8    1         0.3142631048E+01      0.6887782811E+01
          0                 2           2             4    7     1      -0.4975087570E-02       4    7    1        -0.2690425659E+00      0.6407764043E+00
          0                 3           2             4    7     1       0.3387848922E-03       4    7    1         0.1883297329E-01      0.4677066355E-01
          0                 4           1             5    8     1       0.2159772426E-04       5    8    1         0.1279552247E-02      0.2178412611E-02

    ------------------------------------------------
       NWT REQUIRED            4 OUTER ITERATIONS 
       AND A TOTAL OF          7 INNER ITERATIONS.
    ------------------------------------------------

 NO OUTPUT CONTROL FOR STRESS PERIOD   34   TIME STEP   23
 
 SOLVING FOR HEAD 
                                                   Max.-Head-Change                         Max.-Flux-Residual
  Residual-Control   Outer-Iter.   Inner-Iter.     Column Row Layer    Maximum-Head-Change  Column Row Layer    Maximum-Flux-Residual          L2-NORM 
          0                 1           2             4    8     1       0.9002175558E-01       4    8    1         0.4815526243E+01      0.7910644206E+01
          0                 2           2             4    8     1      -0.8752170231E-02       4    8    1        -0.4813064142E+00      0.7908490336E+00
          0                 3           2             4    8     1       0.5955496035E-03       4    8    1         0.3366641037E-01      0.5533835559E-01
          0                 4           1             4    8     1      -0.2366839179E-04       4    8    1        -0.1375260452E-02      0.2261905798E-02

    ------------------------------------------------
       NWT REQUIRED            4 OUTER ITERATIONS 
       AND A TOTAL OF          7 INNER ITERATIONS.
    ------------------------------------------------

 NO OUTPUT CONTROL FOR STRESS PERIOD   34   TIME STEP   24
 
 SOLVING FOR HEAD 
                                                   Max.-Head-Change                         Max.-Flux-Residual
  Residual-Control   Outer-Iter.   Inner-Iter.     Column Row Layer    Maximum-Head-Change  Column Row Layer    Maximum-Flux-Residual          L2-NORM 
          0                 1           2             5    7     1       0.8924315602E-01       5    7    1         0.4818089266E+01      0.8792996208E+01
          0                 2           2             5    7     1      -0.8676615738E-02       5    7    1        -0.4815698500E+00      0.8789798067E+00
          0                 3           2             5    7     1       0.5904151154E-03       5    7    1         0.3368501986E-01      0.6149685273E-01
          0                 4           1             5    7     1      -0.2346484043E-04       5    7    1        -0.1376036436E-02      0.2516433086E-02

    ------------------------------------------------
       NWT REQUIRED            4 OUTER ITERATIONS 
       AND A TOTAL OF          7 INNER ITERATIONS.
    ------------------------------------------------

 NO OUTPUT CONTROL FOR STRESS PERIOD   34   TIME STEP   25
 
 SOLVING FOR HEAD 
                                                   Max.-Head-Change                         Max.-Flux-Residual
  Residual-Control   Outer-Iter.   Inner-Iter.     Column Row Layer    Maximum-Head-Change  Column Row Layer    Maximum-Flux-Residual          L2-NORM 
          0                 1           2             5    7     1       0.8630555333E-01       5    7    1         0.4655359963E+01      0.8595897188E+01
          0                 2           2             5    7     1      -0.8390998926E-02       5    7    1        -0.4653041208E+00      0.8592804213E+00
          0                 3           2             5    7     1       0.5709798537E-03       5    7    1         0.3254724382E-01      0.6011903259E-01
          0                 4           1             5    7     1      -0.2269242219E-04       5    7    1        -0.1329556697E-02      0.2456791806E-02

    ------------------------------------------------
       NWT REQUIRED            4 OUTER ITERATIONS 
       AND A TOTAL OF          7 INNER ITERATIONS.
    ------------------------------------------------

 NO OUTPUT CONTROL FOR STRESS PERIOD   34   TIME STEP   26
 
 SOLVING FOR HEAD 
                                                   Max.-Head-Change                         Max.-Flux-Residual
  Residual-Control   Outer-Iter.   Inner-Iter.     Column Row Layer    Maximum-Head-Change  Column Row Layer    Maximum-Flux-Residual          L2-NORM 
          0                 1           2             5    7     1       0.8390215923E-01       5    7    1         0.4485297222E+01      0.9190988051E+01
          0                 2           2             5    7     1      -0.8157234469E-02       5    7    1        -0.4483016314E+00      0.9187282943E+00
          0                 3           2             5    7     1       0.5550676565E-03       5    7    1         0.3135776461E-01      0.6427448891E-01
          0                 4           1             5    7     1      -0.2205966651E-04       5    7    1        -0.1280952139E-02      0.2626348323E-02

    ------------------------------------------------
       NWT REQUIRED            4 OUTER ITERATIONS 
       AND A TOTAL OF          7 INNER ITERATIONS.
    ------------------------------------------------

 NO OUTPUT CONTROL FOR STRESS PERIOD   34   TIME STEP   27
 
 SOLVING FOR HEAD 
                                                   Max.-Head-Change                         Max.-Flux-Residual
  Residual-Control   Outer-Iter.   Inner-Iter.     Column Row Layer    Maximum-Head-Change  Column Row Layer    Maximum-Flux-Residual          L2-NORM 
          0                 1           2             5    7     1       0.8160986575E-01       5    7    1         0.4360405635E+01      0.8983295898E+01
          0                 2           2             5    7     1      -0.7931335400E-02       5    7    1        -0.4358183303E+00      0.7879473096E+00
          0                 3           2             5    7     1       0.5396453237E-03       5    7    1         0.3048458188E-01      0.5547195873E-01
          0                 4           1             4    8     1      -0.2814447181E-04       4    8    1        -0.1549425366E-02      0.2735203428E-02

    ------------------------------------------------
       NWT REQUIRED            4 OUTER ITERATIONS 
       AND A TOTAL OF          7 INNER ITERATIONS.
    ------------------------------------------------

 NO OUTPUT CONTROL FOR STRESS PERIOD   34   TIME STEP   28
 
 SOLVING FOR HEAD 
                                                   Max.-Head-Change                         Max.-Flux-Residual
  Residual-Control   Outer-Iter.   Inner-Iter.     Column Row Layer    Maximum-Head-Change  Column Row Layer    Maximum-Flux-Residual          L2-NORM 
          0                 1           2             5    7     1       0.7942352256E-01       5    7    1         0.4241435877E+01      0.8774401509E+01
          0                 2           2             4    8     1       0.1980471968E-01       4    8    1         0.1081652062E+01      0.1328486043E+01
          0                 3           2             4    8     1       0.5007698196E-02       4    8    1         0.2711789075E+00      0.2765557957E+00
          0                 4           2             4    8     1       0.1266218561E-02       4    8    1         0.6871277545E-01      0.6874440362E-01
          0                 5           2             4    8     1       0.2792065076E-03       4    8    1         0.1514603689E-01      0.1514649883E-01
          0                 6           1             4    8     1      -0.2714490486E-04       4    8    1        -0.1514391021E-02      0.1514457876E-02

    ------------------------------------------------
       NWT REQUIRED            6 OUTER ITERATIONS 
       AND A TOTAL OF         11 INNER ITERATIONS.
    ------------------------------------------------

 NO OUTPUT CONTROL FOR STRESS PERIOD   34   TIME STEP   29
 
 SOLVING FOR HEAD 
                                                   Max.-Head-Change                         Max.-Flux-Residual
  Residual-Control   Outer-Iter.   Inner-Iter.     Column Row Layer    Maximum-Head-Change  Column Row Layer    Maximum-Flux-Residual          L2-NORM 
          0                 1           2             5    7     1       0.7749893551E-01       5    7    1         0.4128424588E+01      0.8734953500E+01
          0                 2           2             4    7     1       0.1586275767E-01       4    7    1         0.8770570045E+00      0.1193059881E+01
          0                 3           2             4    7     1       0.3994078664E-02       4    7    1         0.2163754714E+00      0.2237638962E+00
          0                 4           1             4    7     1       0.1005668251E-02       4    7    1         0.5476051478E-01      0.5480157013E-01
          0                 5           1             4    7     1       0.2532168347E-03       4    7    1         0.1377680565E-01      0.1377742552E-01
          0                 6           1             4    7     1       0.6375738113E-04       4    7    1         0.3468856450E-02      0.3469027909E-02

    ------------------------------------------------
       NWT REQUIRED            6 OUTER ITERATIONS 
       AND A TOTAL OF          9 INNER ITERATIONS.
    ------------------------------------------------

 NO OUTPUT CONTROL FOR STRESS PERIOD   34   TIME STEP   30



 STREAM LISTING     PERIOD     34   STEP       30

 LAYER ROW COL. STREAM  RCH.  FLOW INTO     FLOW TO   FLOW OUT OF   OVRLND.     DIRECT     STREAM       STREAM     STREAM     STREAM   STREAMBED  STREAMBED
                SEG.NO.  NO.  STRM. RCH.    AQUIFER    STRM. RCH.    RUNOFF     PRECIP       ET          HEAD       DEPTH      WIDTH   CONDCTNC.   GRADIENT

   1    1    1     1     1    1.9000E+01  2.1427E-01   1.8786E+01  0.000E+00  0.000E+00  0.000E+00  1.09413E+03  1.082E+00  1.166E+01  5.249E-02  1.361E+00
   1    2    2     1     2    1.8786E+01  3.3054E-01   1.8455E+01  0.000E+00  0.000E+00  0.000E+00  1.08914E+03  1.077E+00  1.158E+01  8.107E-02  1.359E+00
   1    3    3     1     3    1.8455E+01  2.8064E-01   1.8175E+01  0.000E+00  0.000E+00  0.000E+00  1.08349E+03  1.072E+00  1.149E+01  6.892E-02  1.357E+00
   1    3    4     1     4    1.8175E+01  2.5740E-01   1.7917E+01  0.000E+00  0.000E+00  0.000E+00  1.07848E+03  1.068E+00  1.140E+01  6.328E-02  1.356E+00
   1    4    5     2     1    1.5917E+01  3.0542E-01   1.5612E+01  0.000E+00  0.000E+00  0.000E+00  1.07285E+03  9.157E-01  1.200E+01  7.800E-02  1.305E+00
   1    5    6     2     2    1.5612E+01  2.3438E-01   1.5377E+01  0.000E+00  0.000E+00  0.000E+00  1.06742E+03  9.063E-01  1.200E+01  6.000E-02  1.302E+00
   1    6    6     2     3    1.5377E+01  2.3388E-01   1.5143E+01  0.000E+00  0.000E+00  0.000E+00  1.06269E+03  8.980E-01  1.200E+01  6.000E-02  1.299E+00
   1    7    6     2     4    1.5143E+01  2.3338E-01   1.4910E+01  0.000E+00  0.000E+00  0.000E+00  1.05797E+03  8.897E-01  1.200E+01  6.000E-02  1.297E+00
   1    8    6     2     5    1.4910E+01  2.3289E-01   1.4677E+01  0.000E+00  0.000E+00  0.000E+00  1.05324E+03  8.814E-01  1.200E+01  6.000E-02  1.294E+00
   1    3    5     3     1    2.0000E+00  2.8252E-01   1.7175E+00  0.000E+00  0.000E+00  0.000E+00  1.07555E+03  1.909E+00  9.636E+00  7.227E-02  1.955E+00
   1    3    6     3     2    1.7175E+00  2.4905E-01   1.4684E+00  0.000E+00  0.000E+00  0.000E+00  1.07264E+03  1.727E+00  8.909E+00  6.682E-02  1.864E+00
   1    3    7     3     3    1.4684E+00  1.9718E-01   1.2712E+00  0.000E+00  0.000E+00  0.000E+00  1.06987E+03  1.555E+00  8.218E+00  5.547E-02  1.777E+00
   1    4    8     3     4    1.2712E+00  2.2567E-01   1.0456E+00  0.000E+00  0.000E+00  0.000E+00  1.06682E+03  1.364E+00  7.455E+00  6.709E-02  1.682E+00
   1    5    8     3     5    1.0456E+00  1.5790E-01   8.8768E-01  0.000E+00  0.000E+00  0.000E+00  1.06362E+03  1.164E+00  6.655E+00  4.991E-02  1.582E+00
   1    6    8     3     6    8.8768E-01  5.5980E-02   8.3170E-01  0.000E+00  0.000E+00  0.000E+00  1.06158E+03  1.036E+00  6.145E+00  1.844E-02  1.518E+00
   1    5   10     4     1    1.0000E+01  9.0919E-02   9.9091E+00  0.000E+00  0.000E+00  0.000E+00  1.07836E+03  6.368E-01  1.000E+01  2.500E-02  1.212E+00
   1    5    9     4     2    9.9091E+00  1.8158E-01   9.7275E+00  0.000E+00  0.000E+00  0.000E+00  1.07154E+03  6.315E-01  1.000E+01  5.000E-02  1.211E+00
   1    6    8     4     3    9.7275E+00  1.2689E-01   9.6006E+00  0.000E+00  0.000E+00  0.000E+00  1.06381E+03  6.256E-01  1.000E+01  3.500E-02  1.209E+00
   1    6    8     5     1    1.0432E+01  2.2686E-01   1.0205E+01  0.000E+00  0.000E+00  0.000E+00  1.05868E+03  6.790E-01  1.542E+01  6.166E-02  1.226E+00
   1    7    7     5     2    1.0205E+01  2.7894E-01   9.9265E+00  0.000E+00  0.000E+00  0.000E+00  1.05417E+03  6.732E-01  1.519E+01  7.594E-02  1.224E+00
   1    8    7     5     3    9.9265E+00  1.9221E-01   9.7343E+00  0.000E+00  0.000E+00  0.000E+00  1.04992E+03  6.676E-01  1.497E+01  5.241E-02  1.223E+00
   1    8    6     5     4    9.7343E+00  1.3577E-01   9.5985E+00  0.000E+00  0.000E+00  0.000E+00  1.04691E+03  6.637E-01  1.482E+01  3.706E-02  1.221E+00
   1    9    6     6     1    2.4276E+01  2.5176E-01   2.4024E+01  0.000E+00  0.000E+00  0.000E+00  1.04392E+03  1.196E+00  1.200E+01  6.000E-02  1.399E+00
   1   10    7     6     2    2.4024E+01  2.5131E-01   2.3773E+01  0.000E+00  0.000E+00  0.000E+00  1.03937E+03  1.188E+00  1.200E+01  6.000E-02  1.396E+00
   1   11    7     6     3    2.3773E+01  2.5086E-01   2.3522E+01  0.000E+00  0.000E+00  0.000E+00  1.03482E+03  1.181E+00  1.200E+01  6.000E-02  1.394E+00
   1   12    7     6     4    2.3522E+01  2.5041E-01   2.3271E+01  0.000E+00  0.000E+00  0.000E+00  1.03026E+03  1.173E+00  1.200E+01  6.000E-02  1.391E+00
   1   13    7     6     5    2.3271E+01  7.1219E-03   2.3264E+01  0.000E+00  0.000E+00  0.000E+00  1.02708E+03  1.170E+00  1.200E+01  2.400E-02  9.892E-02
   1   14    9     7     1    1.5000E+02  1.3537E+00   1.4865E+02  0.000E+00  0.000E+00  0.000E+00  1.03987E+03  2.288E+00  5.529E+01  5.593E-01  8.068E-01
   1   13    8     7     2    1.4865E+02  1.9185E+00   1.4673E+02  0.000E+00  0.000E+00  0.000E+00  1.03478E+03  2.279E+00  5.526E+01  6.148E-01  1.040E+00
   1   13    7     7     3    1.4673E+02  1.6233E+00   1.4510E+02  0.000E+00  0.000E+00  0.000E+00  1.02969E+03  2.270E+00  5.521E+01  5.584E-01  9.690E-01
   1   13    6     8     1    1.6837E+02  1.0624E+00   1.6731E+02  0.000E+00  0.000E+00  0.000E+00  1.02481E+03  2.938E+00  4.260E+01  4.341E-01  8.157E-01
   1   13    5     8     2    1.6731E+02  3.0716E-01   1.6700E+02  0.000E+00  0.000E+00  0.000E+00  1.01856E+03  2.934E+00  4.254E+01  4.335E-01  2.362E-01
   1   13    4     8     3    1.6700E+02 -1.9938E+00   1.6899E+02  0.000E+00  0.000E+00  0.000E+00  1.01231E+03  2.939E+00  4.262E+01  4.343E+00 -1.530E-01
   1   13    3     8     4    1.6899E+02 -3.4351E+00   1.7243E+02  0.000E+00  0.000E+00  0.000E+00  1.00608E+03  2.957E+00  4.287E+01  4.369E+00 -2.621E-01
   1   13    2     8     5    1.7243E+02 -2.5243E+00   1.7495E+02  0.000E+00  0.000E+00  0.000E+00  9.99851E+02  2.976E+00  4.315E+01  4.397E+00 -1.913E-01
   1   13    1     8     6    1.7495E+02 -1.9689E+00   1.7692E+02  0.000E+00  0.000E+00  0.000E+00  9.94865E+02  2.990E+00  4.336E+01  2.651E+00 -2.475E-01





UNSATURATED ZONE PACKAGE VOLUMETRIC BUDGET FOR  TIME STEP    30 STRESS PERIOD   34
  ------------------------------------------------------------------------------



     CUMULATIVE VOLUMES      L**3       RATES FOR THIS TIME STEP      L**3/T
     ------------------                 ------------------------

           IN:                                      IN:
           ---                                      ---
        INFILTRATION =  1378754472.9055          INFILTRATION =          12.0675

          OUT:                                     OUT:
          ----                                     ----
              UZF ET =  1264900370.9394                UZF ET =          12.0675
        UZF RECHARGE =    83621097.7202          UZF RECHARGE =          11.7321

            IN - OUT =    30233004.2458              IN - OUT =         -11.7321

          STORAGE:                                 STORAGE:
          --------                                 --------
      STORAGE CHANGE =    30233010.1456        STORAGE CHANGE =         -11.7321

 PERCENT DISCREPANCY IS DIFFERENCE BETWEEN IN-OUT MINUS CHANGE IN STORAGE
 DIVIDED BY THE AVERAGE OF IN AND OUT TIMES 100

 PERCENT DISCREPANCY =           0.00     PERCENT DISCREPANCY =           0.00






1
  VOLUMETRIC BUDGET FOR AGRICULTURAL FIELDS AT  END OF TIME STEP   30, STRESS PERIOD  34
  ------------------------------------------------------------------------------

     CUMULATIVE VOLUMES      L**3       RATES FOR THIS TIME STEP      L**3/T
     ------------------                 ------------------------

           IN:                                      IN:
           ---                                      ---
               AG WELLS  =  1305126528.0000                 AG WELLS  =          11.2200
      DIVERSION SEGMENTS =           0.0000        DIVERSION SEGMENTS =           0.0000
           GW IRRIGATION =           0.0000             GW IRRIGATION =           0.0000
           SW IRRIGATION =           0.0000             SW IRRIGATION =           0.0000
        SYSTEM LOSSES GW =           0.0000          SYSTEM LOSSES GW =           0.0000
        SYSTEM LOSSES SW =           0.0000          SYSTEM LOSSES SW =           0.0000

                TOTAL IN =  1305126528.0000                  TOTAL IN =          11.2200

          OUT:                                     OUT:
          ----                                     ----
               AG WELLS  =           0.0000                 AG WELLS  =           0.0000
      DIVERSION SEGMENTS =           0.0000        DIVERSION SEGMENTS =           0.0000
           GW IRRIGATION =  1305126528.0000             GW IRRIGATION =          11.2200
           SW IRRIGATION =           0.0000             SW IRRIGATION =           0.0000
        SYSTEM LOSSES GW =           0.0000          SYSTEM LOSSES GW =           0.0000
        SYSTEM LOSSES SW =           0.0000          SYSTEM LOSSES SW =           0.0000

               TOTAL OUT =  1305126528.0000                 TOTAL OUT =          11.2200

                IN - OUT =           0.0000                  IN - OUT =           0.0000

     PERCENT DISCREPANCY =           0.00         PERCENT DISCREPANCY =           0.00



1
  VOLUMETRIC BUDGET FOR ENTIRE MODEL AT END OF TIME STEP   30, STRESS PERIOD  34
  ------------------------------------------------------------------------------

     CUMULATIVE VOLUMES      L**3       RATES FOR THIS TIME STEP      L**3/T
     ------------------                 ------------------------

           IN:                                      IN:
           ---                                      ---
             STORAGE     =  1643233280.0000               STORAGE     =          18.5210
       CONSTANT HEAD     =           0.0000         CONSTANT HEAD     =           0.0000
     HEAD DEP BOUNDS     =    24822884.0000       HEAD DEP BOUNDS     =           0.2870
      STREAM LEAKAGE     =  1065704128.0000        STREAM LEAKAGE     =          12.0007
        UZF RECHARGE     =    83621152.0000          UZF RECHARGE     =          11.7321
               GW ET     =           0.0000                 GW ET     =           0.0000
     SURFACE LEAKAGE     =           0.0000       SURFACE LEAKAGE     =           0.0000
           AG WELLS      =           0.0000             AG WELLS      =           0.0000

                TOTAL IN =  2817381376.0000                  TOTAL IN =          42.5407

          OUT:                                     OUT:
          ----                                     ----
             STORAGE     =   575366464.0000               STORAGE     =          21.1087
       CONSTANT HEAD     =           0.0000         CONSTANT HEAD     =           0.0000
     HEAD DEP BOUNDS     =    25432428.0000       HEAD DEP BOUNDS     =           0.2891
      STREAM LEAKAGE     =   893838848.0000        STREAM LEAKAGE     =           9.9220
        UZF RECHARGE     =           0.0000          UZF RECHARGE     =           0.0000
               GW ET     =    17607600.0000                 GW ET     =           0.0000
     SURFACE LEAKAGE     =           0.0000       SURFACE LEAKAGE     =           0.0000
           AG WELLS      =  1305126528.0000             AG WELLS      =          11.2200

               TOTAL OUT =  2817371904.0000                 TOTAL OUT =          42.5398

                IN - OUT =        9472.0000                  IN - OUT =       8.9264E-04

     PERCENT DISCREPANCY =           0.00         PERCENT DISCREPANCY =           0.00






         TIME SUMMARY AT END OF TIME STEP   30 IN STRESS PERIOD   34
                    SECONDS     MINUTES      HOURS       DAYS        YEARS
                    -----------------------------------------------------------
   TIME STEP LENGTH  87667.      1461.1      24.352      1.0147     2.77799E-03
 STRESS PERIOD TIME 2.63000E+06  43833.      730.56      30.440     8.33397E-02
         TOTAL TIME 8.68762E+07 1.44794E+06  24132.      1005.5      2.7529    
1
1
                            STRESS PERIOD NO.   35, LENGTH =   2630000.    
                            -----------------------------------------------

                              NUMBER OF TIME STEPS =    30

                               MULTIPLIER FOR DELT =     1.000

                            INITIAL TIME STEP SIZE =   87666.66    

 REUSING NON-PARAMETER GHB CELLS FROM LAST STRESS PERIOD

      2 GHB CELLS

 REUSING STREAM SEGMENT DATA FROM LAST STRESS PERIOD



            AREAL INFILTRATION RATE
 READING ON UNIT   19 WITH FORMAT: (FREE)              

            1           2           3           4           5           6           7           8           9          10
 ........................................................................................................................
   1   1.0000E-10  2.0000E-10   0.000       0.000       0.000       0.000       0.000       0.000       0.000       0.000    
   2   2.0000E-10  1.0000E-10  2.0000E-10   0.000       0.000      8.0000E-10  8.0000E-10  5.0000E-10   0.000       0.000    
   3    0.000      5.0000E-10  1.0000E-10  1.0000E-10  8.0000E-10  8.0000E-10  5.0000E-10  5.0000E-10   0.000       0.000    
   4   8.0000E-10  5.0000E-10  1.0000E-10  1.0000E-10  1.0000E-10  1.0000E-10  1.0000E-10  1.0000E-10  2.0000E-10   0.000    
   5   8.0000E-10  5.0000E-10  1.0000E-10  1.0000E-10  1.0000E-10  1.0000E-10  1.0000E-10  1.0000E-10  1.0000E-10  1.0000E-10
   6   8.0000E-10  5.0000E-10  5.0000E-10  2.0000E-10  2.0000E-10  1.0000E-10  1.0000E-10  1.0000E-10  1.0000E-10  5.0000E-10
   7   8.0000E-10  5.0000E-10  5.0000E-10  2.0000E-10  2.0000E-10  1.0000E-10  1.0000E-10  2.0000E-10  2.0000E-10   0.000    
   8    0.000      5.0000E-10  5.0000E-10  2.0000E-10  2.0000E-10  1.0000E-10  1.0000E-10  2.0000E-10  5.0000E-10   0.000    
   9    0.000      5.0000E-10  5.0000E-10  2.0000E-10  2.0000E-10  1.0000E-10  1.0000E-10  2.0000E-10  5.0000E-10   0.000    
  10    0.000      5.0000E-10  5.0000E-10  2.0000E-10  2.0000E-10  1.0000E-10  1.0000E-10  2.0000E-10  5.0000E-10  8.0000E-10
  11    0.000      1.0000E-10  1.0000E-10  1.0000E-10  1.0000E-10  1.0000E-10  1.0000E-10  2.0000E-10  5.0000E-10   0.000    
  12   1.0000E-10  1.0000E-10  1.0000E-10  1.0000E-10  1.0000E-10  1.0000E-10  1.0000E-10  1.0000E-10  2.0000E-10   0.000    
  13   1.0000E-10  1.0000E-10  2.0000E-10  2.0000E-10  2.0000E-10  2.0000E-10  2.0000E-10  1.0000E-10  1.0000E-10   0.000    
  14    0.000      2.0000E-10  5.0000E-10  5.0000E-10  5.0000E-10  5.0000E-10  5.0000E-10  2.0000E-10  1.0000E-10   0.000    
  15    0.000       0.000      8.0000E-10  8.0000E-10  8.0000E-10  8.0000E-10   0.000       0.000       0.000       0.000    

                  ET RATE =  5.000000E-09

 USING ET EXTINCTION DEPTH FROM PREVIOUS STRESS PERIOD. CURRENT PERIOD IS:      35

 USING EXTINCTION WATER CONTENT FROM PREVIOUS STRESS PERIOD. CURRENT PERIOD IS:      35

 USING AIR ENTRY PRESSURE FROM PREVIOUS STRESS PERIOD. CURRENT PERIOD IS:      35

 USING ROOT PRESSURE HEAD FROM PREVIOUS STRESS PERIOD. CURRENT PERIOD IS:      35

 USING ROOT ACTIVITY FROM PREVIOUS STRESS PERIOD. CURRENT PERIOD IS:      35

 PROCESSING AG STRESS PERIOD DATA

 READING AG STRESS PERIOD DATA

 READING IRRIGATION WELL

 END PROCESSING AG STRESS PERIOD DATA OPTIONS
 
 SOLVING FOR HEAD 
                                                   Max.-Head-Change                         Max.-Flux-Residual
  Residual-Control   Outer-Iter.   Inner-Iter.     Column Row Layer    Maximum-Head-Change  Column Row Layer    Maximum-Flux-Residual          L2-NORM 
          0                 1           2             4    7     1       0.1320088543E+00       4    7    1         0.6967819557E+01      0.1376239435E+02
          0                 2           2             5    7     1       0.1418418441E-01       5    7    1         0.8051889753E+00      0.1374879261E+01
          0                 3           2             5    7     1       0.3500582491E-02       5    7    1         0.1916795223E+00      0.2071020413E+00
          0                 4           2             5    7     1       0.8639306085E-03       5    7    1         0.4774750692E-01      0.4784088676E-01
          0                 5           2             5    7     1       0.2132144994E-03       5    7    1         0.1176665552E-01      0.1176747446E-01
          0                 6           1             5    7     1       0.5262047486E-04       5    7    1         0.2903832695E-02      0.2904076046E-02

    ------------------------------------------------
       NWT REQUIRED            6 OUTER ITERATIONS 
       AND A TOTAL OF         11 INNER ITERATIONS.
    ------------------------------------------------

 NO OUTPUT CONTROL FOR STRESS PERIOD   35   TIME STEP    1
 
 SOLVING FOR HEAD 
                                                   Max.-Head-Change                         Max.-Flux-Residual
  Residual-Control   Outer-Iter.   Inner-Iter.     Column Row Layer    Maximum-Head-Change  Column Row Layer    Maximum-Flux-Residual          L2-NORM 
          0                 1           2             4    7     1       0.1301832808E+00       4    7    1         0.6872584848E+01      0.1349377043E+02
          0                 2           2             5    6     1       0.1887325013E-01       5    6    1         0.1045777703E+01      0.1493375639E+01
          0                 3           2             5    6     1       0.4662619445E-02       5    6    1         0.2568865186E+00      0.2790941676E+00
          0                 4           2             5    6     1       0.1151899834E-02       5    6    1         0.6354281122E-01      0.6686342766E-01
          0                 5           2             5    6     1       0.2845769924E-03       5    6    1         0.1569542184E-01      0.1650064686E-01
          0                 6           1             5    6     1       0.7030479552E-04       5    6    1         0.3877654163E-02      0.4076719647E-02

    ------------------------------------------------
       NWT REQUIRED            6 OUTER ITERATIONS 
       AND A TOTAL OF         11 INNER ITERATIONS.
    ------------------------------------------------

 NO OUTPUT CONTROL FOR STRESS PERIOD   35   TIME STEP    2
 
 SOLVING FOR HEAD 
                                                   Max.-Head-Change                         Max.-Flux-Residual
  Residual-Control   Outer-Iter.   Inner-Iter.     Column Row Layer    Maximum-Head-Change  Column Row Layer    Maximum-Flux-Residual          L2-NORM 
          0                 1           2             4    7     1       0.1283481790E+00       4    7    1         0.6774710056E+01      0.1321495363E+02
          0                 2           2             5    8     1       0.1815406134E-01       5    8    1         0.1019130143E+01      0.1538378790E+01
          0                 3           2             5    8     1      -0.1765028484E-02       5    8    1        -0.1013655891E+00      0.1297921743E+00
          0                 4           1             5    8     1       0.1201063266E-03       5    8    1         0.7056764614E-02      0.7814117692E-02
          0                 5           1             5    8     1      -0.4773469496E-05       5    8    1        -0.2869411367E-03      0.2905460334E-03

    ------------------------------------------------
       NWT REQUIRED            5 OUTER ITERATIONS 
       AND A TOTAL OF          8 INNER ITERATIONS.
    ------------------------------------------------

 NO OUTPUT CONTROL FOR STRESS PERIOD   35   TIME STEP    3
 
 SOLVING FOR HEAD 
                                                   Max.-Head-Change                         Max.-Flux-Residual
  Residual-Control   Outer-Iter.   Inner-Iter.     Column Row Layer    Maximum-Head-Change  Column Row Layer    Maximum-Flux-Residual          L2-NORM 
          0                 1           2             4    7     1       0.1263741477E+00       4    7    1         0.6669291503E+01      0.1296982411E+02
          0                 2           2             4    7     1      -0.1228646108E-01       4    7    1        -0.6665890156E+00      0.1296383174E+01
          0                 3           2             4    7     1       0.8360360385E-03       4    7    1         0.4662602752E-01      0.9068749576E-01
          0                 4           1             4    7     1      -0.3322539224E-04       4    7    1        -0.1904624246E-02      0.3705092809E-02

    ------------------------------------------------
       NWT REQUIRED            4 OUTER ITERATIONS 
       AND A TOTAL OF          7 INNER ITERATIONS.
    ------------------------------------------------

 NO OUTPUT CONTROL FOR STRESS PERIOD   35   TIME STEP    4
 
 SOLVING FOR HEAD 
                                                   Max.-Head-Change                         Max.-Flux-Residual
  Residual-Control   Outer-Iter.   Inner-Iter.     Column Row Layer    Maximum-Head-Change  Column Row Layer    Maximum-Flux-Residual          L2-NORM 
          0                 1           2             4    7     1       0.1250398350E+00       4    7    1         0.6566007199E+01      0.1365034559E+02
          0                 2           2             4    6     1       0.2440605003E-01       4    6    1         0.1323953716E+01      0.1967949027E+01
          0                 3           2             4    6     1       0.6108978884E-02       4    6    1         0.3289891458E+00      0.4503044728E+00
          0                 4           2             4    7     1       0.1232492735E-02       4    7    1         0.6705005613E-01      0.8533945445E-01
          0                 5           2             4    7     1       0.3136541036E-03       4    7    1         0.1690383069E-01      0.2014373260E-01
          0                 6           1             4    7     1       0.7983871536E-04       4    7    1         0.4311459133E-02      0.5130539278E-02

    ------------------------------------------------
       NWT REQUIRED            6 OUTER ITERATIONS 
       AND A TOTAL OF         11 INNER ITERATIONS.
    ------------------------------------------------

 NO OUTPUT CONTROL FOR STRESS PERIOD   35   TIME STEP    5
 
 SOLVING FOR HEAD 
                                                   Max.-Head-Change                         Max.-Flux-Residual
  Residual-Control   Outer-Iter.   Inner-Iter.     Column Row Layer    Maximum-Head-Change  Column Row Layer    Maximum-Flux-Residual          L2-NORM 
          0                 1           2             4    7     1       0.1228059616E+00       4    7    1         0.6449471561E+01      0.1338598317E+02
          0                 2           2             4    6     1      -0.1088537077E-01       4    6    1        -0.5979099982E+00      0.1186184410E+01
          0                 3           2             4    6     1       0.7407010690E-03       4    6    1         0.4182252080E-01      0.8816756247E-01
          0                 4           1             4    8     1       0.4981381172E-04       4    8    1         0.2888587054E-02      0.4301518626E-02

    ------------------------------------------------
       NWT REQUIRED            4 OUTER ITERATIONS 
       AND A TOTAL OF          7 INNER ITERATIONS.
    ------------------------------------------------

 NO OUTPUT CONTROL FOR STRESS PERIOD   35   TIME STEP    6
 
 SOLVING FOR HEAD 
                                                   Max.-Head-Change                         Max.-Flux-Residual
  Residual-Control   Outer-Iter.   Inner-Iter.     Column Row Layer    Maximum-Head-Change  Column Row Layer    Maximum-Flux-Residual          L2-NORM 
          0                 1           2             4    7     1       0.1214368146E+00       4    7    1         0.6379328427E+01      0.1315930970E+02
          0                 2           2             4    7     1      -0.1149667014E-01       4    7    1        -0.6376012275E+00      0.1338401403E+01
          0                 3           2             5    7     1       0.2521423229E-02       5    7    1         0.1375126562E+00      0.1613648296E+00
          0                 4           2             5    7     1       0.6222331947E-03       5    7    1         0.3441276410E-01      0.3457010298E-01
          0                 5           2             5    7     1       0.1535534180E-03       5    7    1         0.8473859948E-02      0.8474645138E-02
          0                 6           1             5    7     1       0.3789361186E-04       5    7    1         0.2091165796E-02      0.2091351208E-02

    ------------------------------------------------
       NWT REQUIRED            6 OUTER ITERATIONS 
       AND A TOTAL OF         11 INNER ITERATIONS.
    ------------------------------------------------

 NO OUTPUT CONTROL FOR STRESS PERIOD   35   TIME STEP    7
 
 SOLVING FOR HEAD 
                                                   Max.-Head-Change                         Max.-Flux-Residual
  Residual-Control   Outer-Iter.   Inner-Iter.     Column Row Layer    Maximum-Head-Change  Column Row Layer    Maximum-Flux-Residual          L2-NORM 
          0                 1           2             4    7     1       0.1204338598E+00       4    7    1         0.6329854545E+01      0.1293888697E+02
          0                 2           2             4    7     1      -0.1142623753E-01       4    7    1        -0.6326572678E+00      0.1289369473E+01
          0                 3           2             5    7     1      -0.8503742132E-03       5    7    1        -0.4993474409E-01      0.9705347576E-01
          0                 4           1             5    7     1       0.5786717952E-04       5    7    1         0.3445608836E-02      0.4859974275E-02

    ------------------------------------------------
       NWT REQUIRED            4 OUTER ITERATIONS 
       AND A TOTAL OF          7 INNER ITERATIONS.
    ------------------------------------------------

 NO OUTPUT CONTROL FOR STRESS PERIOD   35   TIME STEP    8
 
 SOLVING FOR HEAD 
                                                   Max.-Head-Change                         Max.-Flux-Residual
  Residual-Control   Outer-Iter.   Inner-Iter.     Column Row Layer    Maximum-Head-Change  Column Row Layer    Maximum-Flux-Residual          L2-NORM 
          0                 1           2             4    7     1       0.1192957510E+00       4    7    1         0.6272487189E+01      0.1272842219E+02
          0                 2           2             4    7     1      -0.1158994741E-01       4    7    1        -0.6269241162E+00      0.1321787983E+01
          0                 3           2             5    6     1       0.2458738861E-02       5    6    1         0.1344022959E+00      0.1583698432E+00
          0                 4           2             5    6     1       0.6073396864E-03       5    6    1         0.3355020313E-01      0.3371329529E-01
          0                 5           2             5    6     1       0.1500203243E-03       5    6    1         0.8273777908E-02      0.8274409336E-02
          0                 6           1             5    6     1       0.3705686811E-04       5    6    1         0.2043745504E-02      0.2043881751E-02

    ------------------------------------------------
       NWT REQUIRED            6 OUTER ITERATIONS 
       AND A TOTAL OF         11 INNER ITERATIONS.
    ------------------------------------------------

 NO OUTPUT CONTROL FOR STRESS PERIOD   35   TIME STEP    9
 
 SOLVING FOR HEAD 
                                                   Max.-Head-Change                         Max.-Flux-Residual
  Residual-Control   Outer-Iter.   Inner-Iter.     Column Row Layer    Maximum-Head-Change  Column Row Layer    Maximum-Flux-Residual          L2-NORM 
          0                 1           2             4    7     1       0.1178874002E+00       4    7    1         0.6198817577E+01      0.1252247011E+02
          0                 2           2             5    6     1       0.1283164066E-01       5    6    1         0.7225029148E+00      0.1173081411E+01
          0                 3           2             4    6     1      -0.1819688292E-02       4    6    1        -0.1019659893E+00      0.1653424094E+00
          0                 4           2             4    6     1      -0.3324372688E-03       4    6    1        -0.1896779669E-01      0.3118246934E-01
          0                 5           1             4    7     1       0.8356426779E-04       4    7    1         0.4530334126E-02      0.6321223526E-02

    ------------------------------------------------
       NWT REQUIRED            5 OUTER ITERATIONS 
       AND A TOTAL OF          9 INNER ITERATIONS.
    ------------------------------------------------

 NO OUTPUT CONTROL FOR STRESS PERIOD   35   TIME STEP   10
 
 SOLVING FOR HEAD 
                                                   Max.-Head-Change                         Max.-Flux-Residual
  Residual-Control   Outer-Iter.   Inner-Iter.     Column Row Layer    Maximum-Head-Change  Column Row Layer    Maximum-Flux-Residual          L2-NORM 
          0                 1           2             4    7     1       0.1156038822E+00       4    7    1         0.6076895251E+01      0.1229546372E+02
          0                 2           2             4    6     1       0.2587353597E-01       4    6    1         0.1407825688E+01      0.1829165240E+01
          0                 3           2             4    6     1       0.5685791244E-02       4    6    1         0.3105392924E+00      0.3252362473E+00
          0                 4           2             4    6     1      -0.5527849816E-03       4    6    1        -0.3104803233E-01      0.3157074558E-01
          0                 5           1             4    6     1       0.3761528126E-04       4    6    1         0.2171408837E-02      0.2183046358E-02

    ------------------------------------------------
       NWT REQUIRED            5 OUTER ITERATIONS 
       AND A TOTAL OF          9 INNER ITERATIONS.
    ------------------------------------------------

 NO OUTPUT CONTROL FOR STRESS PERIOD   35   TIME STEP   11
 
 SOLVING FOR HEAD 
                                                   Max.-Head-Change                         Max.-Flux-Residual
  Residual-Control   Outer-Iter.   Inner-Iter.     Column Row Layer    Maximum-Head-Change  Column Row Layer    Maximum-Flux-Residual          L2-NORM 
          0                 1           2             4    7     1       0.1136980660E+00       4    7    1         0.5978374807E+01      0.1160595401E+02
          0                 2           2             4    8     1       0.1927633554E-01       4    8    1         0.1055992417E+01      0.1493322821E+01
          0                 3           2             4    8     1       0.4873625167E-02       4    8    1         0.2637176141E+00      0.2739457248E+00
          0                 4           2             4    8     1       0.1232201912E-02       4    8    1         0.6687936665E-01      0.6694218167E-01
          0                 5           2             4    8     1       0.3115383445E-03       4    8    1         0.1690116136E-01      0.1690163261E-01
          0                 6           1             4    8     1       0.7876644004E-04       4    8    1         0.4273183934E-02      0.4273288968E-02

    ------------------------------------------------
       NWT REQUIRED            6 OUTER ITERATIONS 
       AND A TOTAL OF         11 INNER ITERATIONS.
    ------------------------------------------------

 NO OUTPUT CONTROL FOR STRESS PERIOD   35   TIME STEP   12
 
 SOLVING FOR HEAD 
                                                   Max.-Head-Change                         Max.-Flux-Residual
  Residual-Control   Outer-Iter.   Inner-Iter.     Column Row Layer    Maximum-Head-Change  Column Row Layer    Maximum-Flux-Residual          L2-NORM 
          0                 1           2             4    7     1       0.1127365854E+00       4    7    1         0.5931264434E+01      0.1139918105E+02
          0                 2           2             4    7     1      -0.1087826754E-01       4    7    1        -0.5928201193E+00      0.1045613416E+01
          0                 3           2             4    7     1       0.7402139184E-03       4    7    1         0.4146627977E-01      0.7314140913E-01
          0                 4           1             4    7     1      -0.2941715036E-04       4    7    1        -0.1693863212E-02      0.2987987623E-02

    ------------------------------------------------
       NWT REQUIRED            4 OUTER ITERATIONS 
       AND A TOTAL OF          7 INNER ITERATIONS.
    ------------------------------------------------

 NO OUTPUT CONTROL FOR STRESS PERIOD   35   TIME STEP   13
 
 SOLVING FOR HEAD 
                                                   Max.-Head-Change                         Max.-Flux-Residual
  Residual-Control   Outer-Iter.   Inner-Iter.     Column Row Layer    Maximum-Head-Change  Column Row Layer    Maximum-Flux-Residual          L2-NORM 
          0                 1           2             4    7     1       0.1113858907E+00       4    7    1         0.5861868108E+01      0.1121586394E+02
          0                 2           2             5    7     1       0.1330795029E-01       5    7    1         0.7540615598E+00      0.1267839673E+01
          0                 3           2             5    7     1       0.3280892098E-02       5    7    1         0.1799112271E+00      0.1936698300E+00
          0                 4           2             5    7     1       0.8088658475E-03       5    7    1         0.4473042055E-01      0.4481469861E-01
          0                 5           2             5    7     1       0.1994162387E-03       5    7    1         0.1101293221E-01      0.1101368126E-01
          0                 6           1             5    7     1       0.4916371602E-04       5    7    1         0.2715159563E-02      0.2715338594E-02

    ------------------------------------------------
       NWT REQUIRED            6 OUTER ITERATIONS 
       AND A TOTAL OF         11 INNER ITERATIONS.
    ------------------------------------------------

 NO OUTPUT CONTROL FOR STRESS PERIOD   35   TIME STEP   14
 
 SOLVING FOR HEAD 
                                                   Max.-Head-Change                         Max.-Flux-Residual
  Residual-Control   Outer-Iter.   Inner-Iter.     Column Row Layer    Maximum-Head-Change  Column Row Layer    Maximum-Flux-Residual          L2-NORM 
          0                 1           2             4    7     1       0.1103432597E+00       4    7    1         0.5810293998E+01      0.1102934213E+02
          0                 2           2             4    7     1      -0.1049466728E-01       4    7    1        -0.5807302722E+00      0.1082755755E+01
          0                 3           2             4    7     1       0.7141233941E-03       4    7    1         0.4079643114E-01      0.8076574477E-01
          0                 4           1             5    7     1       0.4521315656E-04       5    7    1         0.2695182029E-02      0.3964880298E-02

    ------------------------------------------------
       NWT REQUIRED            4 OUTER ITERATIONS 
       AND A TOTAL OF          7 INNER ITERATIONS.
    ------------------------------------------------

 NO OUTPUT CONTROL FOR STRESS PERIOD   35   TIME STEP   15
 
 SOLVING FOR HEAD 
                                                   Max.-Head-Change                         Max.-Flux-Residual
  Residual-Control   Outer-Iter.   Inner-Iter.     Column Row Layer    Maximum-Head-Change  Column Row Layer    Maximum-Flux-Residual          L2-NORM 
          0                 1           2             4    7     1       0.1090765481E+00       4    7    1         0.5745589211E+01      0.1085619584E+02
          0                 2           2             4    7     1       0.1586208458E-01       4    7    1         0.8824608936E+00      0.1275286256E+01
          0                 3           2             4    7     1       0.3993045309E-02       4    7    1         0.2159827238E+00      0.2255328619E+00
          0                 4           1             4    7     1       0.1005191398E-02       4    7    1         0.5475851031E-01      0.5481082246E-01
          0                 5           1             4    7     1       0.2530420964E-03       4    7    1         0.1376924332E-01      0.1376997303E-01
          0                 6           1             4    7     1       0.6369962649E-04       4    7    1         0.3466081787E-02      0.3466318480E-02

    ------------------------------------------------
       NWT REQUIRED            6 OUTER ITERATIONS 
       AND A TOTAL OF          9 INNER ITERATIONS.
    ------------------------------------------------

 NO OUTPUT CONTROL FOR STRESS PERIOD   35   TIME STEP   16
 
 SOLVING FOR HEAD 
                                                   Max.-Head-Change                         Max.-Flux-Residual
  Residual-Control   Outer-Iter.   Inner-Iter.     Column Row Layer    Maximum-Head-Change  Column Row Layer    Maximum-Flux-Residual          L2-NORM 
          0                 1           2             4    7     1       0.1060457926E+00       4    7    1         0.5582825172E+01      0.1068214937E+02
          0                 2           2             4    8     1      -0.7688646695E-02       5    7    1        -0.4284303349E+00      0.7174386653E+00
          0                 3           2             5    6     1      -0.8965656034E-03       5    6    1        -0.5195922027E-01      0.7831873364E-01
          0                 4           2             5    6     1      -0.2365891630E-03       5    6    1        -0.1352625877E-01      0.1604858389E-01
          0                 5           1             5    6     1      -0.6249831105E-04       5    6    1        -0.3576522195E-02      0.4119321820E-02

    ------------------------------------------------
       NWT REQUIRED            5 OUTER ITERATIONS 
       AND A TOTAL OF          9 INNER ITERATIONS.
    ------------------------------------------------

 NO OUTPUT CONTROL FOR STRESS PERIOD   35   TIME STEP   17
 
 SOLVING FOR HEAD 
                                                   Max.-Head-Change                         Max.-Flux-Residual
  Residual-Control   Outer-Iter.   Inner-Iter.     Column Row Layer    Maximum-Head-Change  Column Row Layer    Maximum-Flux-Residual          L2-NORM 
          0                 1           2             4    7     1       0.1043617840E+00       4    7    1         0.5494506732E+01      0.1051670454E+02
          0                 2           2             4    6     1       0.2266894726E-01       4    6    1         0.1230249132E+01      0.1784916802E+01
          0                 3           2             5    6     1       0.4352674248E-02       5    6    1         0.2411956534E+00      0.2703444484E+00
          0                 4           2             5    6     1       0.1075100933E-02       5    6    1         0.5921315009E-01      0.5973338792E-01
          0                 5           2             5    6     1       0.2655481304E-03       5    6    1         0.1465178099E-01      0.1465440762E-01
          0                 6           1             5    6     1       0.6558992849E-04       5    6    1         0.3617614461E-02      0.3617820361E-02

    ------------------------------------------------
       NWT REQUIRED            6 OUTER ITERATIONS 
       AND A TOTAL OF         11 INNER ITERATIONS.
    ------------------------------------------------

 NO OUTPUT CONTROL FOR STRESS PERIOD   35   TIME STEP   18
 
 SOLVING FOR HEAD 
                                                   Max.-Head-Change                         Max.-Flux-Residual
  Residual-Control   Outer-Iter.   Inner-Iter.     Column Row Layer    Maximum-Head-Change  Column Row Layer    Maximum-Flux-Residual          L2-NORM 
          0                 1           2             4    7     1       0.1034085931E+00       4    7    1         0.5446134768E+01      0.1034290355E+02
          0                 2           2             4    7     1      -0.9985646630E-02       4    7    1        -0.5450776096E+00      0.9075364704E+00
          0                 3           2             4    7     1       0.6704696896E-03       4    7    1         0.3810417601E-01      0.7358975910E-01
          0                 4           2             4    8     1      -0.1706310096E-03       4    8    1        -0.9499061291E-02      0.9923230871E-02
          0                 5           1             4    8     1      -0.4651915082E-04       4    8    1        -0.2599209785E-02      0.2599802615E-02

    ------------------------------------------------
       NWT REQUIRED            5 OUTER ITERATIONS 
       AND A TOTAL OF          9 INNER ITERATIONS.
    ------------------------------------------------

 NO OUTPUT CONTROL FOR STRESS PERIOD   35   TIME STEP   19
 
 SOLVING FOR HEAD 
                                                   Max.-Head-Change                         Max.-Flux-Residual
  Residual-Control   Outer-Iter.   Inner-Iter.     Column Row Layer    Maximum-Head-Change  Column Row Layer    Maximum-Flux-Residual          L2-NORM 
          0                 1           2             4    7     1       0.1019584620E+00       4    7    1         0.5375672200E+01      0.1010487700E+02
          0                 2           2             4    7     1      -0.9912653586E-02       4    7    1        -0.5372926022E+00      0.1009989983E+01
          0                 3           2             4    7     1       0.6745055203E-03       4    7    1         0.3758208194E-01      0.7064976655E-01
          0                 4           1             4    7     1      -0.2680564549E-04       4    7    1        -0.1535186761E-02      0.2886215491E-02

    ------------------------------------------------
       NWT REQUIRED            4 OUTER ITERATIONS 
       AND A TOTAL OF          7 INNER ITERATIONS.
    ------------------------------------------------

 NO OUTPUT CONTROL FOR STRESS PERIOD   35   TIME STEP   20
 
 SOLVING FOR HEAD 
                                                   Max.-Head-Change                         Max.-Flux-Residual
  Residual-Control   Outer-Iter.   Inner-Iter.     Column Row Layer    Maximum-Head-Change  Column Row Layer    Maximum-Flux-Residual          L2-NORM 
          0                 1           2             4    7     1       0.9991519819E-01       4    7    1         0.5297497611E+01      0.9372810636E+01
          0                 2           2             4    7     1      -0.9714138558E-02       4    7    1        -0.5294882446E+00      0.9368299105E+00
          0                 3           2             4    7     1       0.6609991600E-03       4    7    1         0.3703627391E-01      0.6553272891E-01
          0                 4           1             4    7     1      -0.2626906533E-04       4    7    1        -0.1512902011E-02      0.2677215136E-02

    ------------------------------------------------
       NWT REQUIRED            4 OUTER ITERATIONS 
       AND A TOTAL OF          7 INNER ITERATIONS.
    ------------------------------------------------

 NO OUTPUT CONTROL FOR STRESS PERIOD   35   TIME STEP   21
 
 SOLVING FOR HEAD 
                                                   Max.-Head-Change                         Max.-Flux-Residual
  Residual-Control   Outer-Iter.   Inner-Iter.     Column Row Layer    Maximum-Head-Change  Column Row Layer    Maximum-Flux-Residual          L2-NORM 
          0                 1           2             4    7     1       0.9725873846E-01       4    7    1         0.5191326134E+01      0.8485765667E+01
          0                 2           2             4    6     1      -0.7755142978E-02       4    6    1        -0.4336767668E+00      0.7760041692E+00
          0                 3           2             4    7     1       0.1744820095E-02       4    7    1         0.9434258046E-01      0.1054552854E+00
          0                 4           1             4    7     1       0.4382034381E-03       4    7    1         0.2391907046E-01      0.2398956772E-01
          0                 5           1             4    7     1       0.1100525638E-03       4    7    1         0.5998314836E-02      0.5998713711E-02
          0                 6           1             4    7     1       0.2763915025E-04       4    7    1         0.1506410946E-02      0.1506522937E-02

    ------------------------------------------------
       NWT REQUIRED            6 OUTER ITERATIONS 
       AND A TOTAL OF          9 INNER ITERATIONS.
    ------------------------------------------------

 NO OUTPUT CONTROL FOR STRESS PERIOD   35   TIME STEP   22
 
 SOLVING FOR HEAD 
                                                   Max.-Head-Change                         Max.-Flux-Residual
  Residual-Control   Outer-Iter.   Inner-Iter.     Column Row Layer    Maximum-Head-Change  Column Row Layer    Maximum-Flux-Residual          L2-NORM 
          0                 1           2             4    7     1       0.9381579540E-01       4    7    1         0.5002274187E+01      0.8321287261E+01
          0                 2           2             4    7     1       0.1478447207E-01       4    7    1         0.8173036506E+00      0.1053466950E+01
          0                 3           2             4    7     1      -0.1437385509E-02       4    7    1        -0.8136701989E-01      0.9391519101E-01
          0                 4           1             4    7     1       0.9781010288E-04       4    7    1         0.5669790445E-02      0.5997592462E-02

    ------------------------------------------------
       NWT REQUIRED            4 OUTER ITERATIONS 
       AND A TOTAL OF          7 INNER ITERATIONS.
    ------------------------------------------------

 NO OUTPUT CONTROL FOR STRESS PERIOD   35   TIME STEP   23
 
 SOLVING FOR HEAD 
                                                   Max.-Head-Change                         Max.-Flux-Residual
  Residual-Control   Outer-Iter.   Inner-Iter.     Column Row Layer    Maximum-Head-Change  Column Row Layer    Maximum-Flux-Residual          L2-NORM 
          0                 1           2             4    7     1       0.9033762663E-01       4    7    1         0.4812496234E+01      0.7563951920E+01
          0                 2           2             4    7     1      -0.8782955643E-02       4    7    1        -0.4810107310E+00      0.7560481672E+00
          0                 3           2             4    7     1       0.5976392473E-03       4    7    1         0.3364554590E-01      0.5288849523E-01
          0                 4           1             4    7     1      -0.2375118995E-04       4    7    1        -0.1374401505E-02      0.2160775349E-02

    ------------------------------------------------
       NWT REQUIRED            4 OUTER ITERATIONS 
       AND A TOTAL OF          7 INNER ITERATIONS.
    ------------------------------------------------

 NO OUTPUT CONTROL FOR STRESS PERIOD   35   TIME STEP   24
 
 SOLVING FOR HEAD 
                                                   Max.-Head-Change                         Max.-Flux-Residual
  Residual-Control   Outer-Iter.   Inner-Iter.     Column Row Layer    Maximum-Head-Change  Column Row Layer    Maximum-Flux-Residual          L2-NORM 
          0                 1           2             4    7     1       0.8814435312E-01       4    7    1         0.4693706433E+01      0.7427071375E+01
          0                 2           2             4    6     1       0.9750709648E-02       4    6    1         0.5411227689E+00      0.8214894136E+00
          0                 3           2             4    6     1       0.2447922011E-02       4    6    1         0.1328290122E+00      0.1397639408E+00
          0                 4           2             4    6     1       0.6145556833E-03       4    6    1         0.3353626814E-01      0.3357761282E-01
          0                 5           2             4    6     1       0.1542852979E-03       4    6    1         0.8411916408E-02      0.8412272450E-02
          0                 6           1             4    6     1       0.3873360605E-04       4    6    1         0.2111916467E-02      0.2111983076E-02

    ------------------------------------------------
       NWT REQUIRED            6 OUTER ITERATIONS 
       AND A TOTAL OF         11 INNER ITERATIONS.
    ------------------------------------------------

 NO OUTPUT CONTROL FOR STRESS PERIOD   35   TIME STEP   25
 
 SOLVING FOR HEAD 
                                                   Max.-Head-Change                         Max.-Flux-Residual
  Residual-Control   Outer-Iter.   Inner-Iter.     Column Row Layer    Maximum-Head-Change  Column Row Layer    Maximum-Flux-Residual          L2-NORM 
          0                 1           2             4    6     1       0.7358636005E-01       4    6    1         0.3952353836E+01      0.6057683017E+01
          0                 2           2             4    6     1       0.1468954601E-01       4    6    1         0.8071480137E+00      0.9284787420E+00
          0                 3           2             4    6     1      -0.1428156433E-02       4    6    1        -0.8050783442E-01      0.8678979084E-01
          0                 4           1             4    6     1       0.9718170044E-04       4    6    1         0.5620235857E-02      0.5781604569E-02

    ------------------------------------------------
       NWT REQUIRED            4 OUTER ITERATIONS 
       AND A TOTAL OF          7 INNER ITERATIONS.
    ------------------------------------------------

 NO OUTPUT CONTROL FOR STRESS PERIOD   35   TIME STEP   26
 
 SOLVING FOR HEAD 
                                                   Max.-Head-Change                         Max.-Flux-Residual
  Residual-Control   Outer-Iter.   Inner-Iter.     Column Row Layer    Maximum-Head-Change  Column Row Layer    Maximum-Flux-Residual          L2-NORM 
          0                 1           2             4    6     1       0.7021378275E-01       4    6    1         0.3766578932E+01      0.5929530704E+01
          0                 2           2             4    6     1      -0.6826405734E-02       4    6    1        -0.3764671744E+00      0.5926979136E+00
          0                 3           2             4    6     1       0.4645094241E-03       4    6    1         0.2633315957E-01      0.4146357037E-01
          0                 4           1             4    6     1      -0.1846063992E-04       4    6    1        -0.1075703680E-02      0.1694143555E-02

    ------------------------------------------------
       NWT REQUIRED            4 OUTER ITERATIONS 
       AND A TOTAL OF          7 INNER ITERATIONS.
    ------------------------------------------------

 NO OUTPUT CONTROL FOR STRESS PERIOD   35   TIME STEP   27
 
 SOLVING FOR HEAD 
                                                   Max.-Head-Change                         Max.-Flux-Residual
  Residual-Control   Outer-Iter.   Inner-Iter.     Column Row Layer    Maximum-Head-Change  Column Row Layer    Maximum-Flux-Residual          L2-NORM 
          0                 1           2             4    6     1       0.6805822152E-01       4    6    1         0.3648164424E+01      0.5833772646E+01
          0                 2           2             4    6     1      -0.6616828958E-02       4    6    1        -0.3646312735E+00      0.5831266319E+00
          0                 3           2             4    6     1       0.4502484271E-03       4    6    1         0.2550524936E-01      0.4079405567E-01
          0                 4           1             4    6     1      -0.1789386478E-04       4    6    1        -0.1041882744E-02      0.1666793275E-02

    ------------------------------------------------
       NWT REQUIRED            4 OUTER ITERATIONS 
       AND A TOTAL OF          7 INNER ITERATIONS.
    ------------------------------------------------

 NO OUTPUT CONTROL FOR STRESS PERIOD   35   TIME STEP   28
 
 SOLVING FOR HEAD 
                                                   Max.-Head-Change                         Max.-Flux-Residual
  Residual-Control   Outer-Iter.   Inner-Iter.     Column Row Layer    Maximum-Head-Change  Column Row Layer    Maximum-Flux-Residual          L2-NORM 
          0                 1           2             4    6     1       0.6601791491E-01       4    6    1         0.3536168106E+01      0.5742939830E+01
          0                 2           2             4    6     1      -0.6418458139E-02       4    6    1        -0.3534369046E+00      0.5740476701E+00
          0                 3           2             4    6     1       0.4367499623E-03       4    6    1         0.2472221407E-01      0.4015898041E-01
          0                 4           1             4    6     1      -0.1735739503E-04       4    6    1        -0.1009895003E-02      0.1640846308E-02

    ------------------------------------------------
       NWT REQUIRED            4 OUTER ITERATIONS 
       AND A TOTAL OF          7 INNER ITERATIONS.
    ------------------------------------------------

 NO OUTPUT CONTROL FOR STRESS PERIOD   35   TIME STEP   29
 
 SOLVING FOR HEAD 
                                                   Max.-Head-Change                         Max.-Flux-Residual
  Residual-Control   Outer-Iter.   Inner-Iter.     Column Row Layer    Maximum-Head-Change  Column Row Layer    Maximum-Flux-Residual          L2-NORM 
          0                 1           2             4    6     1       0.6408511221E-01       4    6    1         0.3430154817E+01      0.5656542709E+01
          0                 2           2             4    6     1      -0.6230539688E-02       4    6    1        -0.3428405708E+00      0.5654120750E+00
          0                 3           2             4    6     1       0.4239627503E-03       4    6    1         0.2398101109E-01      0.3955491786E-01
          0                 4           1             4    6     1      -0.1684919314E-04       4    6    1        -0.9796161989E-03      0.1616169810E-02

    ------------------------------------------------
       NWT REQUIRED            4 OUTER ITERATIONS 
       AND A TOTAL OF          7 INNER ITERATIONS.
    ------------------------------------------------

 NO OUTPUT CONTROL FOR STRESS PERIOD   35   TIME STEP   30



 STREAM LISTING     PERIOD     35   STEP       30

 LAYER ROW COL. STREAM  RCH.  FLOW INTO     FLOW TO   FLOW OUT OF   OVRLND.     DIRECT     STREAM       STREAM     STREAM     STREAM   STREAMBED  STREAMBED
                SEG.NO.  NO.  STRM. RCH.    AQUIFER    STRM. RCH.    RUNOFF     PRECIP       ET          HEAD       DEPTH      WIDTH   CONDCTNC.   GRADIENT

   1    1    1     1     1    1.9000E+01  2.1427E-01   1.8786E+01  0.000E+00  0.000E+00  0.000E+00  1.09413E+03  1.082E+00  1.166E+01  5.249E-02  1.361E+00
   1    2    2     1     2    1.8786E+01  3.3054E-01   1.8455E+01  0.000E+00  0.000E+00  0.000E+00  1.08914E+03  1.077E+00  1.158E+01  8.107E-02  1.359E+00
   1    3    3     1     3    1.8455E+01  2.8064E-01   1.8175E+01  0.000E+00  0.000E+00  0.000E+00  1.08349E+03  1.072E+00  1.149E+01  6.892E-02  1.357E+00
   1    3    4     1     4    1.8175E+01  2.5740E-01   1.7917E+01  0.000E+00  0.000E+00  0.000E+00  1.07848E+03  1.068E+00  1.140E+01  6.328E-02  1.356E+00
   1    4    5     2     1    1.5917E+01  3.0542E-01   1.5612E+01  0.000E+00  0.000E+00  0.000E+00  1.07285E+03  9.157E-01  1.200E+01  7.800E-02  1.305E+00
   1    5    6     2     2    1.5612E+01  2.3438E-01   1.5377E+01  0.000E+00  0.000E+00  0.000E+00  1.06742E+03  9.063E-01  1.200E+01  6.000E-02  1.302E+00
   1    6    6     2     3    1.5377E+01  2.3388E-01   1.5143E+01  0.000E+00  0.000E+00  0.000E+00  1.06269E+03  8.980E-01  1.200E+01  6.000E-02  1.299E+00
   1    7    6     2     4    1.5143E+01  2.3338E-01   1.4910E+01  0.000E+00  0.000E+00  0.000E+00  1.05797E+03  8.897E-01  1.200E+01  6.000E-02  1.297E+00
   1    8    6     2     5    1.4910E+01  2.3289E-01   1.4677E+01  0.000E+00  0.000E+00  0.000E+00  1.05324E+03  8.814E-01  1.200E+01  6.000E-02  1.294E+00
   1    3    5     3     1    2.0000E+00  2.8252E-01   1.7175E+00  0.000E+00  0.000E+00  0.000E+00  1.07555E+03  1.909E+00  9.636E+00  7.227E-02  1.955E+00
   1    3    6     3     2    1.7175E+00  2.4905E-01   1.4684E+00  0.000E+00  0.000E+00  0.000E+00  1.07264E+03  1.727E+00  8.909E+00  6.682E-02  1.864E+00
   1    3    7     3     3    1.4684E+00  1.9718E-01   1.2712E+00  0.000E+00  0.000E+00  0.000E+00  1.06987E+03  1.555E+00  8.218E+00  5.547E-02  1.777E+00
   1    4    8     3     4    1.2712E+00  2.2567E-01   1.0456E+00  0.000E+00  0.000E+00  0.000E+00  1.06682E+03  1.364E+00  7.455E+00  6.709E-02  1.682E+00
   1    5    8     3     5    1.0456E+00  1.5790E-01   8.8768E-01  0.000E+00  0.000E+00  0.000E+00  1.06362E+03  1.164E+00  6.655E+00  4.991E-02  1.582E+00
   1    6    8     3     6    8.8768E-01  5.5980E-02   8.3170E-01  0.000E+00  0.000E+00  0.000E+00  1.06158E+03  1.036E+00  6.145E+00  1.844E-02  1.518E+00
   1    5   10     4     1    1.0000E+01  9.0919E-02   9.9091E+00  0.000E+00  0.000E+00  0.000E+00  1.07836E+03  6.368E-01  1.000E+01  2.500E-02  1.212E+00
   1    5    9     4     2    9.9091E+00  1.8158E-01   9.7275E+00  0.000E+00  0.000E+00  0.000E+00  1.07154E+03  6.315E-01  1.000E+01  5.000E-02  1.211E+00
   1    6    8     4     3    9.7275E+00  1.2689E-01   9.6006E+00  0.000E+00  0.000E+00  0.000E+00  1.06381E+03  6.256E-01  1.000E+01  3.500E-02  1.209E+00
   1    6    8     5     1    1.0432E+01  2.2686E-01   1.0205E+01  0.000E+00  0.000E+00  0.000E+00  1.05868E+03  6.790E-01  1.542E+01  6.166E-02  1.226E+00
   1    7    7     5     2    1.0205E+01  2.7894E-01   9.9265E+00  0.000E+00  0.000E+00  0.000E+00  1.05417E+03  6.732E-01  1.519E+01  7.594E-02  1.224E+00
   1    8    7     5     3    9.9265E+00  1.9221E-01   9.7343E+00  0.000E+00  0.000E+00  0.000E+00  1.04992E+03  6.676E-01  1.497E+01  5.241E-02  1.223E+00
   1    8    6     5     4    9.7343E+00  1.3577E-01   9.5985E+00  0.000E+00  0.000E+00  0.000E+00  1.04691E+03  6.637E-01  1.482E+01  3.706E-02  1.221E+00
   1    9    6     6     1    2.4276E+01  2.5176E-01   2.4024E+01  0.000E+00  0.000E+00  0.000E+00  1.04392E+03  1.196E+00  1.200E+01  6.000E-02  1.399E+00
   1   10    7     6     2    2.4024E+01  2.5131E-01   2.3773E+01  0.000E+00  0.000E+00  0.000E+00  1.03937E+03  1.188E+00  1.200E+01  6.000E-02  1.396E+00
   1   11    7     6     3    2.3773E+01  2.5086E-01   2.3522E+01  0.000E+00  0.000E+00  0.000E+00  1.03482E+03  1.181E+00  1.200E+01  6.000E-02  1.394E+00
   1   12    7     6     4    2.3522E+01  2.5041E-01   2.3271E+01  0.000E+00  0.000E+00  0.000E+00  1.03026E+03  1.173E+00  1.200E+01  6.000E-02  1.391E+00
   1   13    7     6     5    2.3271E+01  7.4626E-03   2.3264E+01  0.000E+00  0.000E+00  0.000E+00  1.02708E+03  1.170E+00  1.200E+01  2.400E-02  1.036E-01
   1   14    9     7     1    1.5000E+02  1.3556E+00   1.4864E+02  0.000E+00  0.000E+00  0.000E+00  1.03987E+03  2.288E+00  5.529E+01  5.593E-01  8.079E-01
   1   13    8     7     2    1.4864E+02  1.9233E+00   1.4672E+02  0.000E+00  0.000E+00  0.000E+00  1.03478E+03  2.279E+00  5.526E+01  6.148E-01  1.043E+00
   1   13    7     7     3    1.4672E+02  1.6311E+00   1.4509E+02  0.000E+00  0.000E+00  0.000E+00  1.02969E+03  2.269E+00  5.521E+01  5.584E-01  9.737E-01
   1   13    6     8     1    1.6835E+02  1.0715E+00   1.6728E+02  0.000E+00  0.000E+00  0.000E+00  1.02481E+03  2.938E+00  4.260E+01  4.341E-01  8.227E-01
   1   13    5     8     2    1.6728E+02  3.1771E-01   1.6696E+02  0.000E+00  0.000E+00  0.000E+00  1.01856E+03  2.933E+00  4.253E+01  4.334E-01  2.443E-01
   1   13    4     8     3    1.6696E+02 -1.9520E+00   1.6892E+02  0.000E+00  0.000E+00  0.000E+00  1.01231E+03  2.939E+00  4.261E+01  4.342E+00 -1.498E-01
   1   13    3     8     4    1.6892E+02 -3.4195E+00   1.7234E+02  0.000E+00  0.000E+00  0.000E+00  1.00608E+03  2.956E+00  4.287E+01  4.368E+00 -2.609E-01
   1   13    2     8     5    1.7234E+02 -2.5213E+00   1.7486E+02  0.000E+00  0.000E+00  0.000E+00  9.99850E+02  2.975E+00  4.314E+01  4.397E+00 -1.912E-01
   1   13    1     8     6    1.7486E+02 -1.9681E+00   1.7683E+02  0.000E+00  0.000E+00  0.000E+00  9.94865E+02  2.990E+00  4.335E+01  2.651E+00 -2.475E-01





UNSATURATED ZONE PACKAGE VOLUMETRIC BUDGET FOR  TIME STEP    30 STRESS PERIOD   35
  ------------------------------------------------------------------------------



     CUMULATIVE VOLUMES      L**3       RATES FOR THIS TIME STEP      L**3/T
     ------------------                 ------------------------

           IN:                                      IN:
           ---                                      ---
        INFILTRATION =  1380983397.7782          INFILTRATION =           0.8475

          OUT:                                     OUT:
          ----                                     ----
              UZF ET =  1267129295.8122                UZF ET =           0.8475
        UZF RECHARGE =   113776741.2617          UZF RECHARGE =           2.4040

            IN - OUT =       77360.7043              IN - OUT =          -2.4040

          STORAGE:                                 STORAGE:
          --------                                 --------
      STORAGE CHANGE =       77366.5891        STORAGE CHANGE =          -2.4040

 PERCENT DISCREPANCY IS DIFFERENCE BETWEEN IN-OUT MINUS CHANGE IN STORAGE
 DIVIDED BY THE AVERAGE OF IN AND OUT TIMES 100

 PERCENT DISCREPANCY =           0.00     PERCENT DISCREPANCY =           0.00






1
  VOLUMETRIC BUDGET FOR AGRICULTURAL FIELDS AT  END OF TIME STEP   30, STRESS PERIOD  35
  ------------------------------------------------------------------------------

     CUMULATIVE VOLUMES      L**3       RATES FOR THIS TIME STEP      L**3/T
     ------------------                 ------------------------

           IN:                                      IN:
           ---                                      ---
               AG WELLS  =  1305126528.0000                 AG WELLS  =           0.0000
      DIVERSION SEGMENTS =           0.0000        DIVERSION SEGMENTS =           0.0000
           GW IRRIGATION =           0.0000             GW IRRIGATION =           0.0000
           SW IRRIGATION =           0.0000             SW IRRIGATION =           0.0000
        SYSTEM LOSSES GW =           0.0000          SYSTEM LOSSES GW =           0.0000
        SYSTEM LOSSES SW =           0.0000          SYSTEM LOSSES SW =           0.0000

                TOTAL IN =  1305126528.0000                  TOTAL IN =           0.0000

          OUT:                                     OUT:
          ----                                     ----
               AG WELLS  =           0.0000                 AG WELLS  =           0.0000
      DIVERSION SEGMENTS =           0.0000        DIVERSION SEGMENTS =           0.0000
           GW IRRIGATION =  1305126528.0000             GW IRRIGATION =           0.0000
           SW IRRIGATION =           0.0000             SW IRRIGATION =           0.0000
        SYSTEM LOSSES GW =           0.0000          SYSTEM LOSSES GW =           0.0000
        SYSTEM LOSSES SW =           0.0000          SYSTEM LOSSES SW =           0.0000

               TOTAL OUT =  1305126528.0000                 TOTAL OUT =           0.0000

                IN - OUT =           0.0000                  IN - OUT =           0.0000

     PERCENT DISCREPANCY =           0.00         PERCENT DISCREPANCY =           0.00



1
  VOLUMETRIC BUDGET FOR ENTIRE MODEL AT END OF TIME STEP   30, STRESS PERIOD  35
  ------------------------------------------------------------------------------

     CUMULATIVE VOLUMES      L**3       RATES FOR THIS TIME STEP      L**3/T
     ------------------                 ------------------------

           IN:                                      IN:
           ---                                      ---
             STORAGE     =  1681672576.0000               STORAGE     =          12.0475
       CONSTANT HEAD     =           0.0000         CONSTANT HEAD     =           0.0000
     HEAD DEP BOUNDS     =    25577808.0000       HEAD DEP BOUNDS     =           0.2871
      STREAM LEAKAGE     =  1097311104.0000        STREAM LEAKAGE     =          12.0353
        UZF RECHARGE     =   113776784.0000          UZF RECHARGE     =           2.4040
               GW ET     =           0.0000                 GW ET     =           0.0000
     SURFACE LEAKAGE     =           0.0000       SURFACE LEAKAGE     =           0.0000
           AG WELLS      =           0.0000             AG WELLS      =           0.0000

                TOTAL IN =  2918338304.0000                  TOTAL IN =          26.7739

          OUT:                                     OUT:
          ----                                     ----
             STORAGE     =   649546560.0000               STORAGE     =          16.6239
       CONSTANT HEAD     =           0.0000         CONSTANT HEAD     =           0.0000
     HEAD DEP BOUNDS     =    26192738.0000       HEAD DEP BOUNDS     =           0.2891
      STREAM LEAKAGE     =   919854400.0000        STREAM LEAKAGE     =           9.8609
        UZF RECHARGE     =           0.0000          UZF RECHARGE     =           0.0000
               GW ET     =    17607600.0000                 GW ET     =           0.0000
     SURFACE LEAKAGE     =           0.0000       SURFACE LEAKAGE     =           0.0000
           AG WELLS      =  1305126528.0000             AG WELLS      =           0.0000

               TOTAL OUT =  2918327808.0000                 TOTAL OUT =          26.7739

                IN - OUT =       10496.0000                  IN - OUT =       1.9073E-05

     PERCENT DISCREPANCY =           0.00         PERCENT DISCREPANCY =           0.00






         TIME SUMMARY AT END OF TIME STEP   30 IN STRESS PERIOD   35
                    SECONDS     MINUTES      HOURS       DAYS        YEARS
                    -----------------------------------------------------------
   TIME STEP LENGTH  87667.      1461.1      24.352      1.0147     2.77799E-03
 STRESS PERIOD TIME 2.63000E+06  43833.      730.56      30.440     8.33397E-02
         TOTAL TIME 8.95061E+07 1.49177E+06  24863.      1036.0      2.8363    
1
1
                            STRESS PERIOD NO.   36, LENGTH =   2630000.    
                            -----------------------------------------------

                              NUMBER OF TIME STEPS =    30

                               MULTIPLIER FOR DELT =     1.000

                            INITIAL TIME STEP SIZE =   87666.66    

 REUSING NON-PARAMETER GHB CELLS FROM LAST STRESS PERIOD

      2 GHB CELLS

 REUSING STREAM SEGMENT DATA FROM LAST STRESS PERIOD



            AREAL INFILTRATION RATE
 READING ON UNIT   19 WITH FORMAT: (FREE)              

            1           2           3           4           5           6           7           8           9          10
 ........................................................................................................................
   1   1.0000E-10  2.0000E-10   0.000       0.000       0.000       0.000       0.000       0.000       0.000       0.000    
   2   2.0000E-10  1.0000E-10  2.0000E-10   0.000       0.000      8.0000E-10  8.0000E-10  5.0000E-10   0.000       0.000    
   3    0.000      5.0000E-10  1.0000E-10  1.0000E-10  8.0000E-10  8.0000E-10  5.0000E-10  5.0000E-10   0.000       0.000    
   4   8.0000E-10  5.0000E-10  1.0000E-10  1.0000E-10  1.0000E-10  1.0000E-10  1.0000E-10  1.0000E-10  2.0000E-10   0.000    
   5   8.0000E-10  5.0000E-10  1.0000E-10  1.0000E-10  1.0000E-10  1.0000E-10  1.0000E-10  1.0000E-10  1.0000E-10  1.0000E-10
   6   8.0000E-10  5.0000E-10  5.0000E-10  2.0000E-10  2.0000E-10  1.0000E-10  1.0000E-10  1.0000E-10  1.0000E-10  5.0000E-10
   7   8.0000E-10  5.0000E-10  5.0000E-10  2.0000E-10  2.0000E-10  1.0000E-10  1.0000E-10  2.0000E-10  2.0000E-10   0.000    
   8    0.000      5.0000E-10  5.0000E-10  2.0000E-10  2.0000E-10  1.0000E-10  1.0000E-10  2.0000E-10  5.0000E-10   0.000    
   9    0.000      5.0000E-10  5.0000E-10  2.0000E-10  2.0000E-10  1.0000E-10  1.0000E-10  2.0000E-10  5.0000E-10   0.000    
  10    0.000      5.0000E-10  5.0000E-10  2.0000E-10  2.0000E-10  1.0000E-10  1.0000E-10  2.0000E-10  5.0000E-10  8.0000E-10
  11    0.000      1.0000E-10  1.0000E-10  1.0000E-10  1.0000E-10  1.0000E-10  1.0000E-10  2.0000E-10  5.0000E-10   0.000    
  12   1.0000E-10  1.0000E-10  1.0000E-10  1.0000E-10  1.0000E-10  1.0000E-10  1.0000E-10  1.0000E-10  2.0000E-10   0.000    
  13   1.0000E-10  1.0000E-10  2.0000E-10  2.0000E-10  2.0000E-10  2.0000E-10  2.0000E-10  1.0000E-10  1.0000E-10   0.000    
  14    0.000      2.0000E-10  5.0000E-10  5.0000E-10  5.0000E-10  5.0000E-10  5.0000E-10  2.0000E-10  1.0000E-10   0.000    
  15    0.000       0.000      8.0000E-10  8.0000E-10  8.0000E-10  8.0000E-10   0.000       0.000       0.000       0.000    

                  ET RATE =  5.000000E-10

 USING ET EXTINCTION DEPTH FROM PREVIOUS STRESS PERIOD. CURRENT PERIOD IS:      36

 USING EXTINCTION WATER CONTENT FROM PREVIOUS STRESS PERIOD. CURRENT PERIOD IS:      36

 USING AIR ENTRY PRESSURE FROM PREVIOUS STRESS PERIOD. CURRENT PERIOD IS:      36

 USING ROOT PRESSURE HEAD FROM PREVIOUS STRESS PERIOD. CURRENT PERIOD IS:      36

 USING ROOT ACTIVITY FROM PREVIOUS STRESS PERIOD. CURRENT PERIOD IS:      36

 PROCESSING AG STRESS PERIOD DATA

 READING AG STRESS PERIOD DATA

 READING IRRIGATION WELL

 END PROCESSING AG STRESS PERIOD DATA OPTIONS
 
 SOLVING FOR HEAD 
                                                   Max.-Head-Change                         Max.-Flux-Residual
  Residual-Control   Outer-Iter.   Inner-Iter.     Column Row Layer    Maximum-Head-Change  Column Row Layer    Maximum-Flux-Residual          L2-NORM 
          0                 1           2             4    7     1       0.4143978191E-01       4    7    1         0.2193520324E+01      0.4565306367E+01
          0                 2           2             4    7     1      -0.4028833896E-02       4    7    1        -0.2192368192E+00      0.4563569296E+00
          0                 3           2             4    7     1       0.2741430115E-03       4    7    1         0.1533506857E-01      0.3192798395E-01
          0                 4           1             4    7     1      -0.1089482346E-04       4    7    1        -0.6264236388E-03      0.1304710574E-02

    ------------------------------------------------
       NWT REQUIRED            4 OUTER ITERATIONS 
       AND A TOTAL OF          7 INNER ITERATIONS.
    ------------------------------------------------

 NO OUTPUT CONTROL FOR STRESS PERIOD   36   TIME STEP    1
 
 SOLVING FOR HEAD 
                                                   Max.-Head-Change                         Max.-Flux-Residual
  Residual-Control   Outer-Iter.   Inner-Iter.     Column Row Layer    Maximum-Head-Change  Column Row Layer    Maximum-Flux-Residual          L2-NORM 
          0                 1           2             4    7     1       0.4069538526E-01       4    7    1         0.2153110930E+01      0.4509535253E+01
          0                 2           2             4    7     1      -0.3956460644E-02       4    7    1        -0.2151978727E+00      0.4507816099E+00
          0                 3           2             4    7     1       0.2692182839E-03       4    7    1         0.1505254978E-01      0.3153788426E-01
          0                 4           1             4    7     1      -0.1069910263E-04       4    7    1        -0.6148826519E-03      0.1288757325E-02

    ------------------------------------------------
       NWT REQUIRED            4 OUTER ITERATIONS 
       AND A TOTAL OF          7 INNER ITERATIONS.
    ------------------------------------------------

 NO OUTPUT CONTROL FOR STRESS PERIOD   36   TIME STEP    2
 
 SOLVING FOR HEAD 
                                                   Max.-Head-Change                         Max.-Flux-Residual
  Residual-Control   Outer-Iter.   Inner-Iter.     Column Row Layer    Maximum-Head-Change  Column Row Layer    Maximum-Flux-Residual          L2-NORM 
          0                 1           2             4    7     1       0.3998211912E-01       4    7    1         0.2114434974E+01      0.4455464863E+01
          0                 2           2             4    7     1      -0.3887114102E-02       4    7    1        -0.2113321891E+00      0.4453763535E+00
          0                 3           2             4    7     1       0.2644995157E-03       4    7    1         0.1478215071E-01      0.3115970444E-01
          0                 4           1             4    7     1      -0.1051156725E-04       4    7    1        -0.6038367569E-03      0.1273297683E-02

    ------------------------------------------------
       NWT REQUIRED            4 OUTER ITERATIONS 
       AND A TOTAL OF          7 INNER ITERATIONS.
    ------------------------------------------------

 NO OUTPUT CONTROL FOR STRESS PERIOD   36   TIME STEP    3
 
 SOLVING FOR HEAD 
                                                   Max.-Head-Change                         Max.-Flux-Residual
  Residual-Control   Outer-Iter.   Inner-Iter.     Column Row Layer    Maximum-Head-Change  Column Row Layer    Maximum-Flux-Residual          L2-NORM 
          0                 1           2             4    7     1       0.3929799960E-01       4    7    1         0.2077380362E+01      0.4402987091E+01
          0                 2           2             4    7     1      -0.3820601383E-02       4    7    1        -0.2076285644E+00      0.4401303276E+00
          0                 3           2             4    7     1       0.2599735815E-03       4    7    1         0.1452308758E-01      0.3079256632E-01
          0                 4           1             4    7     1      -0.1033169569E-04       4    7    1        -0.5932539548E-03      0.1258238409E-02

    ------------------------------------------------
       NWT REQUIRED            4 OUTER ITERATIONS 
       AND A TOTAL OF          7 INNER ITERATIONS.
    ------------------------------------------------

 NO OUTPUT CONTROL FOR STRESS PERIOD   36   TIME STEP    4
 
 SOLVING FOR HEAD 
                                                   Max.-Head-Change                         Max.-Flux-Residual
  Residual-Control   Outer-Iter.   Inner-Iter.     Column Row Layer    Maximum-Head-Change  Column Row Layer    Maximum-Flux-Residual          L2-NORM 
          0                 1           2             4    7     1       0.3864092914E-01       4    7    1         0.2041829670E+01      0.4351983349E+01
          0                 2           2             4    7     1      -0.3756718545E-02       4    7    1        -0.2040752615E+00      0.4350316796E+00
          0                 3           2             4    7     1       0.2556266035E-03       4    7    1         0.1427453944E-01      0.3043591594E-01
          0                 4           1             4    7     1      -0.1015893613E-04       4    7    1        -0.5831007029E-03      0.1243726621E-02

    ------------------------------------------------
       NWT REQUIRED            4 OUTER ITERATIONS 
       AND A TOTAL OF          7 INNER ITERATIONS.
    ------------------------------------------------

 NO OUTPUT CONTROL FOR STRESS PERIOD   36   TIME STEP    5
 
 SOLVING FOR HEAD 
                                                   Max.-Head-Change                         Max.-Flux-Residual
  Residual-Control   Outer-Iter.   Inner-Iter.     Column Row Layer    Maximum-Head-Change  Column Row Layer    Maximum-Flux-Residual          L2-NORM 
          0                 1           2             4    7     1       0.3800937007E-01       4    7    1         0.2007695989E+01      0.4302353769E+01
          0                 2           2             4    7     1      -0.3695316085E-02       4    7    1        -0.2006635934E+00      0.4300704255E+00
          0                 3           2             4    7     1       0.2514484091E-03       4    7    1         0.1403589862E-01      0.3008879759E-01
          0                 4           1             4    7     1      -0.9992885521E-05       4    7    1        -0.5733521903E-03      0.1229542079E-02

    ------------------------------------------------
       NWT REQUIRED            4 OUTER ITERATIONS 
       AND A TOTAL OF          7 INNER ITERATIONS.
    ------------------------------------------------

 NO OUTPUT CONTROL FOR STRESS PERIOD   36   TIME STEP    6
 
 SOLVING FOR HEAD 
                                                   Max.-Head-Change                         Max.-Flux-Residual
  Residual-Control   Outer-Iter.   Inner-Iter.     Column Row Layer    Maximum-Head-Change  Column Row Layer    Maximum-Flux-Residual          L2-NORM 
          0                 1           2             4    7     1       0.3740151268E-01       4    7    1         0.1974877747E+01      0.4254015193E+01
          0                 2           2             4    7     1      -0.3636218051E-02       4    7    1        -0.1973834076E+00      0.4252382587E+00
          0                 3           2             4    7     1       0.2474270238E-03       4    7    1         0.1380645490E-01      0.2975071397E-01
          0                 4           1             4    7     1      -0.9833066537E-05       4    7    1        -0.5639794065E-03      0.1215722623E-02

    ------------------------------------------------
       NWT REQUIRED            4 OUTER ITERATIONS 
       AND A TOTAL OF          7 INNER ITERATIONS.
    ------------------------------------------------

 NO OUTPUT CONTROL FOR STRESS PERIOD   36   TIME STEP    7
 
 SOLVING FOR HEAD 
                                                   Max.-Head-Change                         Max.-Flux-Residual
  Residual-Control   Outer-Iter.   Inner-Iter.     Column Row Layer    Maximum-Head-Change  Column Row Layer    Maximum-Flux-Residual          L2-NORM 
          0                 1           2             4    7     1       0.3681595419E-01       4    7    1         0.1943295678E+01      0.4206887575E+01
          0                 2           2             4    7     1      -0.3579288055E-02       4    7    1        -0.1942267813E+00      0.4205271785E+00
          0                 3           2             4    7     1       0.2435531675E-03       4    7    1         0.1358565414E-01      0.2942110559E-01
          0                 4           1             4    7     1      -0.9679110657E-05       4    7    1        -0.5549596578E-03      0.1202253358E-02

    ------------------------------------------------
       NWT REQUIRED            4 OUTER ITERATIONS 
       AND A TOTAL OF          7 INNER ITERATIONS.
    ------------------------------------------------

 NO OUTPUT CONTROL FOR STRESS PERIOD   36   TIME STEP    8
 
 SOLVING FOR HEAD 
                                                   Max.-Head-Change                         Max.-Flux-Residual
  Residual-Control   Outer-Iter.   Inner-Iter.     Column Row Layer    Maximum-Head-Change  Column Row Layer    Maximum-Flux-Residual          L2-NORM 
          0                 1           2             4    7     1       0.3625126273E-01       4    7    1         0.1912869769E+01      0.4160896917E+01
          0                 2           2             4    7     1      -0.3524386879E-02       4    7    1        -0.1911857165E+00      0.4159297621E+00
          0                 3           2             4    7     1       0.2398173672E-03       4    7    1         0.1337293684E-01      0.2909944336E-01
          0                 4           1             4    7     1      -0.9530642449E-05       4    7    1        -0.5462701879E-03      0.1189107184E-02

    ------------------------------------------------
       NWT REQUIRED            4 OUTER ITERATIONS 
       AND A TOTAL OF          7 INNER ITERATIONS.
    ------------------------------------------------

 NO OUTPUT CONTROL FOR STRESS PERIOD   36   TIME STEP    9
 
 SOLVING FOR HEAD 
                                                   Max.-Head-Change                         Max.-Flux-Residual
  Residual-Control   Outer-Iter.   Inner-Iter.     Column Row Layer    Maximum-Head-Change  Column Row Layer    Maximum-Flux-Residual          L2-NORM 
          0                 1           2             4    7     1       0.3570625138E-01       4    7    1         0.1883533063E+01      0.4115987726E+01
          0                 2           2             4    7     1      -0.3471399121E-02       4    7    1        -0.1882535208E+00      0.4114404916E+00
          0                 3           2             4    7     1       0.2362117686E-03       4    7    1         0.1316783490E-01      0.2878537406E-01
          0                 4           1             4    7     1      -0.9387348075E-05       4    7    1        -0.5378917585E-03      0.1176278286E-02

    ------------------------------------------------
       NWT REQUIRED            4 OUTER ITERATIONS 
       AND A TOTAL OF          7 INNER ITERATIONS.
    ------------------------------------------------

 NO OUTPUT CONTROL FOR STRESS PERIOD   36   TIME STEP   10
 
 SOLVING FOR HEAD 
                                                   Max.-Head-Change                         Max.-Flux-Residual
  Residual-Control   Outer-Iter.   Inner-Iter.     Column Row Layer    Maximum-Head-Change  Column Row Layer    Maximum-Flux-Residual          L2-NORM 
          0                 1           2             4    7     1       0.3517969377E-01       4    7    1         0.1855216736E+01      0.4072092372E+01
          0                 2           2             4    7     1      -0.3420205544E-02       4    7    1        -0.1854233148E+00      0.4070525724E+00
          0                 3           2             4    7     1       0.2327282588E-03       4    7    1         0.1296986705E-01      0.2847836833E-01
          0                 4           1             4    7     1      -0.9248906445E-05       4    7    1        -0.5298047956E-03      0.1163728030E-02

    ------------------------------------------------
       NWT REQUIRED            4 OUTER ITERATIONS 
       AND A TOTAL OF          7 INNER ITERATIONS.
    ------------------------------------------------

 NO OUTPUT CONTROL FOR STRESS PERIOD   36   TIME STEP   11
 
 SOLVING FOR HEAD 
                                                   Max.-Head-Change                         Max.-Flux-Residual
  Residual-Control   Outer-Iter.   Inner-Iter.     Column Row Layer    Maximum-Head-Change  Column Row Layer    Maximum-Flux-Residual          L2-NORM 
          0                 1           2             4    7     1       0.3467046078E-01       4    7    1         0.1827857203E+01      0.4029164403E+01
          0                 2           2             4    7     1      -0.3370696369E-02       4    7    1        -0.1826887431E+00      0.4027613885E+00
          0                 3           2             4    7     1       0.2293593679E-03       4    7    1         0.1277858879E-01      0.2817814968E-01
          0                 4           1             4    7     1      -0.9115019608E-05       4    7    1        -0.5219911118E-03      0.1151457911E-02

    ------------------------------------------------
       NWT REQUIRED            4 OUTER ITERATIONS 
       AND A TOTAL OF          7 INNER ITERATIONS.
    ------------------------------------------------

 NO OUTPUT CONTROL FOR STRESS PERIOD   36   TIME STEP   12
 
 SOLVING FOR HEAD 
                                                   Max.-Head-Change                         Max.-Flux-Residual
  Residual-Control   Outer-Iter.   Inner-Iter.     Column Row Layer    Maximum-Head-Change  Column Row Layer    Maximum-Flux-Residual          L2-NORM 
          0                 1           2             4    7     1       0.3417749928E-01       4    7    1         0.1801395921E+01      0.3987154806E+01
          0                 2           2             4    7     1      -0.3322769203E-02       4    7    1        -0.1800439539E+00      0.3985620057E+00
          0                 3           2             4    7     1       0.2260981275E-03       4    7    1         0.1259359075E-01      0.2788433869E-01
          0                 4           1             4    7     1      -0.8985411489E-05       4    7    1        -0.5144339650E-03      0.1139451495E-02

    ------------------------------------------------
       NWT REQUIRED            4 OUTER ITERATIONS 
       AND A TOTAL OF          7 INNER ITERATIONS.
    ------------------------------------------------

 NO OUTPUT CONTROL FOR STRESS PERIOD   36   TIME STEP   13
 
 SOLVING FOR HEAD 
                                                   Max.-Head-Change                         Max.-Flux-Residual
  Residual-Control   Outer-Iter.   Inner-Iter.     Column Row Layer    Maximum-Head-Change  Column Row Layer    Maximum-Flux-Residual          L2-NORM 
          0                 1           2             4    7     1       0.3369997425E-01       4    7    1         0.1775785573E+01      0.3946015220E+01
          0                 2           2             4    7     1      -0.3276342858E-02       4    7    1        -0.1774842178E+00      0.3944496248E+00
          0                 3           2             4    7     1       0.2229390137E-03       4    7    1         0.1241454212E-01      0.2759663661E-01
          0                 4           1             4    7     1      -0.8859862193E-05       4    7    1        -0.5071198780E-03      0.1127693555E-02

    ------------------------------------------------
       NWT REQUIRED            4 OUTER ITERATIONS 
       AND A TOTAL OF          7 INNER ITERATIONS.
    ------------------------------------------------

 NO OUTPUT CONTROL FOR STRESS PERIOD   36   TIME STEP   14
 
 SOLVING FOR HEAD 
                                                   Max.-Head-Change                         Max.-Flux-Residual
  Residual-Control   Outer-Iter.   Inner-Iter.     Column Row Layer    Maximum-Head-Change  Column Row Layer    Maximum-Flux-Residual          L2-NORM 
          0                 1           2             4    7     1       0.3323698136E-01       4    7    1         0.1750975580E+01      0.3905717074E+01
          0                 2           2             4    7     1      -0.3231329399E-02       4    7    1        -0.1750044790E+00      0.3904116746E+00
          0                 3           2             4    7     1       0.2198760423E-03       4    7    1         0.1224108923E-01      0.2731412355E-01
          0                 4           1             4    7     1      -0.8738134212E-05       4    7    1        -0.5000343845E-03      0.1116150022E-02

    ------------------------------------------------
       NWT REQUIRED            4 OUTER ITERATIONS 
       AND A TOTAL OF          7 INNER ITERATIONS.
    ------------------------------------------------

 NO OUTPUT CONTROL FOR STRESS PERIOD   36   TIME STEP   15
 
 SOLVING FOR HEAD 
                                                   Max.-Head-Change                         Max.-Flux-Residual
  Residual-Control   Outer-Iter.   Inner-Iter.     Column Row Layer    Maximum-Head-Change  Column Row Layer    Maximum-Flux-Residual          L2-NORM 
          0                 1           2             4    7     1       0.3278781567E-01       4    7    1         0.1726926340E+01      0.3866222152E+01
          0                 2           2             4    7     1      -0.3187660031E-02       4    7    1        -0.1726007793E+00      0.3864494253E+00
          0                 3           2             4    7     1       0.2169045320E-03       4    7    1         0.1207295525E-01      0.2703692264E-01
          0                 4           1             4    7     1      -0.8620040579E-05       4    7    1        -0.4931661447E-03      0.1104819801E-02

    ------------------------------------------------
       NWT REQUIRED            4 OUTER ITERATIONS 
       AND A TOTAL OF          7 INNER ITERATIONS.
    ------------------------------------------------

 NO OUTPUT CONTROL FOR STRESS PERIOD   36   TIME STEP   16
 
 SOLVING FOR HEAD 
                                                   Max.-Head-Change                         Max.-Flux-Residual
  Residual-Control   Outer-Iter.   Inner-Iter.     Column Row Layer    Maximum-Head-Change  Column Row Layer    Maximum-Flux-Residual          L2-NORM 
          0                 1           2             4    7     1       0.3235143062E-01       4    7    1         0.1703579454E+01      0.3827538298E+01
          0                 2           2             4    7     1      -0.3145233823E-02       4    7    1        -0.1702672813E+00      0.3826064256E+00
          0                 3           2             4    7     1       0.2140176144E-03       4    7    1         0.1190973178E-01      0.2676805983E-01
          0                 4           1             4    7     1      -0.8505309593E-05       4    7    1        -0.4864985424E-03      0.1093841848E-02

    ------------------------------------------------
       NWT REQUIRED            4 OUTER ITERATIONS 
       AND A TOTAL OF          7 INNER ITERATIONS.
    ------------------------------------------------

 NO OUTPUT CONTROL FOR STRESS PERIOD   36   TIME STEP   17
 
 SOLVING FOR HEAD 
                                                   Max.-Head-Change                         Max.-Flux-Residual
  Residual-Control   Outer-Iter.   Inner-Iter.     Column Row Layer    Maximum-Head-Change  Column Row Layer    Maximum-Flux-Residual          L2-NORM 
          0                 1           2             4    7     1       0.3192737711E-01       4    7    1         0.1680909768E+01      0.3789646078E+01
          0                 2           2             4    7     1      -0.3104006269E-02       4    7    1        -0.1680014710E+00      0.3788189159E+00
          0                 3           2             4    7     1       0.2112122616E-03       4    7    1         0.1175124303E-01      0.2650308374E-01
          0                 4           1             4    7     1      -0.8393819449E-05       4    7    1        -0.4800243323E-03      0.1083003860E-02

    ------------------------------------------------
       NWT REQUIRED            4 OUTER ITERATIONS 
       AND A TOTAL OF          7 INNER ITERATIONS.
    ------------------------------------------------

 NO OUTPUT CONTROL FOR STRESS PERIOD   36   TIME STEP   18
 
 SOLVING FOR HEAD 
                                                   Max.-Head-Change                         Max.-Flux-Residual
  Residual-Control   Outer-Iter.   Inner-Iter.     Column Row Layer    Maximum-Head-Change  Column Row Layer    Maximum-Flux-Residual          L2-NORM 
          0                 1           2             4    7     1       0.3151485095E-01       4    7    1         0.1658872176E+01      0.3752454229E+01
          0                 2           2             4    7     1      -0.3063899464E-02       4    7    1        -0.1657988398E+00      0.3751012318E+00
          0                 3           2             4    7     1       0.2084831721E-03       4    7    1         0.1159717359E-01      0.2624299922E-01
          0                 4           1             4    7     1      -0.8285360961E-05       4    7    1        -0.4737306715E-03      0.1072386079E-02

    ------------------------------------------------
       NWT REQUIRED            4 OUTER ITERATIONS 
       AND A TOTAL OF          7 INNER ITERATIONS.
    ------------------------------------------------

 NO OUTPUT CONTROL FOR STRESS PERIOD   36   TIME STEP   19
 
 SOLVING FOR HEAD 
                                                   Max.-Head-Change                         Max.-Flux-Residual
  Residual-Control   Outer-Iter.   Inner-Iter.     Column Row Layer    Maximum-Head-Change  Column Row Layer    Maximum-Flux-Residual          L2-NORM 
          0                 1           2             4    7     1       0.3111350017E-01       4    7    1         0.1637446836E+01      0.3715949970E+01
          0                 2           2             4    7     1      -0.3024879185E-02       4    7    1        -0.1636574042E+00      0.3714522789E+00
          0                 3           2             4    7     1       0.2058280169E-03       4    7    1         0.1144738472E-01      0.2598771474E-01
          0                 4           1             4    7     1      -0.8179840528E-05       4    7    1        -0.4676118756E-03      0.1061944914E-02

    ------------------------------------------------
       NWT REQUIRED            4 OUTER ITERATIONS 
       AND A TOTAL OF          7 INNER ITERATIONS.
    ------------------------------------------------

 NO OUTPUT CONTROL FOR STRESS PERIOD   36   TIME STEP   20
 
 SOLVING FOR HEAD 
                                                   Max.-Head-Change                         Max.-Flux-Residual
  Residual-Control   Outer-Iter.   Inner-Iter.     Column Row Layer    Maximum-Head-Change  Column Row Layer    Maximum-Flux-Residual          L2-NORM 
          0                 1           2             4    7     1       0.3072246947E-01       4    7    1         0.1616586339E+01      0.3680092286E+01
          0                 2           2             4    7     1      -0.2986862277E-02       4    7    1        -0.1615724257E+00      0.3678679628E+00
          0                 3           2             4    7     1       0.2032411377E-03       4    7    1         0.1130154499E-01      0.2573695502E-01
          0                 4           1             4    7     1      -0.8077033538E-05       4    7    1        -0.4616543888E-03      0.1051709858E-02

    ------------------------------------------------
       NWT REQUIRED            4 OUTER ITERATIONS 
       AND A TOTAL OF          7 INNER ITERATIONS.
    ------------------------------------------------

 NO OUTPUT CONTROL FOR STRESS PERIOD   36   TIME STEP   21
 
 SOLVING FOR HEAD 
                                                   Max.-Head-Change                         Max.-Flux-Residual
  Residual-Control   Outer-Iter.   Inner-Iter.     Column Row Layer    Maximum-Head-Change  Column Row Layer    Maximum-Flux-Residual          L2-NORM 
          0                 1           2             4    7     1       0.3034149118E-01       4    7    1         0.1596275501E+01      0.3644868059E+01
          0                 2           2             4    7     1      -0.2949822711E-02       4    7    1        -0.1595423865E+00      0.3643470451E+00
          0                 3           2             4    7     1       0.2007207633E-03       4    7    1         0.1115954820E-01      0.2549068072E-01
          0                 4           1             4    7     1      -0.7976869648E-05       4    7    1        -0.4558538967E-03      0.1041642769E-02

    ------------------------------------------------
       NWT REQUIRED            4 OUTER ITERATIONS 
       AND A TOTAL OF          7 INNER ITERATIONS.
    ------------------------------------------------

 NO OUTPUT CONTROL FOR STRESS PERIOD   36   TIME STEP   22
 
 SOLVING FOR HEAD 
                                                   Max.-Head-Change                         Max.-Flux-Residual
  Residual-Control   Outer-Iter.   Inner-Iter.     Column Row Layer    Maximum-Head-Change  Column Row Layer    Maximum-Flux-Residual          L2-NORM 
          0                 1           2             4    7     1       0.2996992621E-01       4    7    1         0.1576478571E+01      0.3610258654E+01
          0                 2           2             4    7     1      -0.2913698354E-02       4    7    1        -0.1575637132E+00      0.3608874705E+00
          0                 3           2             4    7     1       0.1982626649E-03       4    7    1         0.1102114436E-01      0.2524860653E-01
          0                 4           1             4    7     1      -0.7879180655E-05       4    7    1        -0.4502001659E-03      0.1031749387E-02

    ------------------------------------------------
       NWT REQUIRED            4 OUTER ITERATIONS 
       AND A TOTAL OF          7 INNER ITERATIONS.
    ------------------------------------------------

 NO OUTPUT CONTROL FOR STRESS PERIOD   36   TIME STEP   23
 
 SOLVING FOR HEAD 
                                                   Max.-Head-Change                         Max.-Flux-Residual
  Residual-Control   Outer-Iter.   Inner-Iter.     Column Row Layer    Maximum-Head-Change  Column Row Layer    Maximum-Flux-Residual          L2-NORM 
          0                 1           2             4    7     1       0.2960730471E-01       4    7    1         0.1557169705E+01      0.3576235800E+01
          0                 2           2             4    7     1      -0.2878443521E-02       4    7    1        -0.1556338225E+00      0.3574866160E+00
          0                 3           2             4    7     1       0.1958637356E-03       4    7    1         0.1088615285E-01      0.2501067181E-01
          0                 4           1             4    7     1      -0.7783843720E-05       4    7    1        -0.4446858622E-03      0.1022020720E-02

    ------------------------------------------------
       NWT REQUIRED            4 OUTER ITERATIONS 
       AND A TOTAL OF          7 INNER ITERATIONS.
    ------------------------------------------------

 NO OUTPUT CONTROL FOR STRESS PERIOD   36   TIME STEP   24
 
 SOLVING FOR HEAD 
                                                   Max.-Head-Change                         Max.-Flux-Residual
  Residual-Control   Outer-Iter.   Inner-Iter.     Column Row Layer    Maximum-Head-Change  Column Row Layer    Maximum-Flux-Residual          L2-NORM 
          0                 1           2             4    7     1       0.2925332242E-01       4    7    1         0.1538331832E+01      0.3542785879E+01
          0                 2           2             4    7     1      -0.2844028633E-02       4    7    1        -0.1537510083E+00      0.3541430055E+00
          0                 3           2             4    7     1       0.1935219608E-03       4    7    1         0.1075445427E-01      0.2477676435E-01
          0                 4           1             4    7     1      -0.7690777561E-05       4    7    1        -0.4393060383E-03      0.1012474917E-02

    ------------------------------------------------
       NWT REQUIRED            4 OUTER ITERATIONS 
       AND A TOTAL OF          7 INNER ITERATIONS.
    ------------------------------------------------

 NO OUTPUT CONTROL FOR STRESS PERIOD   36   TIME STEP   25
 
 SOLVING FOR HEAD 
                                                   Max.-Head-Change                         Max.-Flux-Residual
  Residual-Control   Outer-Iter.   Inner-Iter.     Column Row Layer    Maximum-Head-Change  Column Row Layer    Maximum-Flux-Residual          L2-NORM 
          0                 1           2             4    7     1       0.2890756947E-01       4    7    1         0.1519941887E+01      0.3509894867E+01
          0                 2           2             4    7     1      -0.2810413838E-02       4    7    1        -0.1519129649E+00      0.3508552978E+00
          0                 3           2             4    7     1       0.1912346300E-03       4    7    1         0.1062588737E-01      0.2454675883E-01
          0                 4           1             4    7     1      -0.7599875801E-05       4    7    1        -0.4340541882E-03      0.1003075460E-02

    ------------------------------------------------
       NWT REQUIRED            4 OUTER ITERATIONS 
       AND A TOTAL OF          7 INNER ITERATIONS.
    ------------------------------------------------

 NO OUTPUT CONTROL FOR STRESS PERIOD   36   TIME STEP   26
 
 SOLVING FOR HEAD 
                                                   Max.-Head-Change                         Max.-Flux-Residual
  Residual-Control   Outer-Iter.   Inner-Iter.     Column Row Layer    Maximum-Head-Change  Column Row Layer    Maximum-Flux-Residual          L2-NORM 
          0                 1           2             4    7     1       0.2856966398E-01       4    7    1         0.1501978619E+01      0.3477545679E+01
          0                 2           2             4    7     1      -0.2777562006E-02       4    7    1        -0.1501175683E+00      0.3476217555E+00
          0                 3           2             4    7     1       0.1889992155E-03       4    7    1         0.1050030354E-01      0.2432054487E-01
          0                 4           1             4    7     1      -0.7511037012E-05       4    7    1        -0.4289241640E-03      0.9938210667E-03

    ------------------------------------------------
       NWT REQUIRED            4 OUTER ITERATIONS 
       AND A TOTAL OF          7 INNER ITERATIONS.
    ------------------------------------------------

 NO OUTPUT CONTROL FOR STRESS PERIOD   36   TIME STEP   27
 
 SOLVING FOR HEAD 
                                                   Max.-Head-Change                         Max.-Flux-Residual
  Residual-Control   Outer-Iter.   Inner-Iter.     Column Row Layer    Maximum-Head-Change  Column Row Layer    Maximum-Flux-Residual          L2-NORM 
          0                 1           2             4    7     1       0.2823910973E-01       4    7    1         0.1484414934E+01      0.3445718149E+01
          0                 2           2             4    7     1      -0.2745424894E-02       4    7    1        -0.1483621105E+00      0.3444403577E+00
          0                 3           2             4    7     1       0.1868124354E-03       4    7    1         0.1037751337E-01      0.2409798360E-01
          0                 4           1             4    7     1      -0.7424131216E-05       4    7    1        -0.4239082857E-03      0.9847418096E-03

    ------------------------------------------------
       NWT REQUIRED            4 OUTER ITERATIONS 
       AND A TOTAL OF          7 INNER ITERATIONS.
    ------------------------------------------------

 NO OUTPUT CONTROL FOR STRESS PERIOD   36   TIME STEP   28
 
 SOLVING FOR HEAD 
                                                   Max.-Head-Change                         Max.-Flux-Residual
  Residual-Control   Outer-Iter.   Inner-Iter.     Column Row Layer    Maximum-Head-Change  Column Row Layer    Maximum-Flux-Residual          L2-NORM 
          0                 1           2             4    7     1       0.2791584421E-01       4    7    1         0.1467246984E+01      0.3414396900E+01
          0                 2           2             4    7     1      -0.2713996422E-02       4    7    1        -0.1466462067E+00      0.3413095851E+00
          0                 3           2             4    7     1       0.1846738749E-03       4    7    1         0.1025748995E-01      0.2387897499E-01
          0                 4           1             4    7     1      -0.7339141259E-05       4    7    1        -0.4190053971E-03      0.9757890539E-03

    ------------------------------------------------
       NWT REQUIRED            4 OUTER ITERATIONS 
       AND A TOTAL OF          7 INNER ITERATIONS.
    ------------------------------------------------

 NO OUTPUT CONTROL FOR STRESS PERIOD   36   TIME STEP   29
 
 SOLVING FOR HEAD 
                                                   Max.-Head-Change                         Max.-Flux-Residual
  Residual-Control   Outer-Iter.   Inner-Iter.     Column Row Layer    Maximum-Head-Change  Column Row Layer    Maximum-Flux-Residual          L2-NORM 
          0                 1           2             4    7     1       0.2759928415E-01       4    7    1         0.1450442353E+01      0.3383581810E+01
          0                 2           2             4    7     1      -0.2683219882E-02       4    7    1        -0.1449666169E+00      0.3382293846E+00
          0                 3           2             4    7     1       0.1825796761E-03       4    7    1         0.1014000663E-01      0.2366347507E-01
          0                 4           1             4    7     1      -0.7255914711E-05       4    7    1        -0.4142062974E-03      0.9669819762E-03

    ------------------------------------------------
       NWT REQUIRED            4 OUTER ITERATIONS 
       AND A TOTAL OF          7 INNER ITERATIONS.
    ------------------------------------------------

 NO OUTPUT CONTROL FOR STRESS PERIOD   36   TIME STEP   30



 STREAM LISTING     PERIOD     36   STEP       30

 LAYER ROW COL. STREAM  RCH.  FLOW INTO     FLOW TO   FLOW OUT OF   OVRLND.     DIRECT     STREAM       STREAM     STREAM     STREAM   STREAMBED  STREAMBED
                SEG.NO.  NO.  STRM. RCH.    AQUIFER    STRM. RCH.    RUNOFF     PRECIP       ET          HEAD       DEPTH      WIDTH   CONDCTNC.   GRADIENT

   1    1    1     1     1    1.9000E+01  2.1427E-01   1.8786E+01  0.000E+00  0.000E+00  0.000E+00  1.09413E+03  1.082E+00  1.166E+01  5.249E-02  1.361E+00
   1    2    2     1     2    1.8786E+01  3.3054E-01   1.8455E+01  0.000E+00  0.000E+00  0.000E+00  1.08914E+03  1.077E+00  1.158E+01  8.107E-02  1.359E+00
   1    3    3     1     3    1.8455E+01  2.8064E-01   1.8175E+01  0.000E+00  0.000E+00  0.000E+00  1.08349E+03  1.072E+00  1.149E+01  6.892E-02  1.357E+00
   1    3    4     1     4    1.8175E+01  2.5740E-01   1.7917E+01  0.000E+00  0.000E+00  0.000E+00  1.07848E+03  1.068E+00  1.140E+01  6.328E-02  1.356E+00
   1    4    5     2     1    1.5917E+01  3.0542E-01   1.5612E+01  0.000E+00  0.000E+00  0.000E+00  1.07285E+03  9.157E-01  1.200E+01  7.800E-02  1.305E+00
   1    5    6     2     2    1.5612E+01  2.3438E-01   1.5377E+01  0.000E+00  0.000E+00  0.000E+00  1.06742E+03  9.063E-01  1.200E+01  6.000E-02  1.302E+00
   1    6    6     2     3    1.5377E+01  2.3388E-01   1.5143E+01  0.000E+00  0.000E+00  0.000E+00  1.06269E+03  8.980E-01  1.200E+01  6.000E-02  1.299E+00
   1    7    6     2     4    1.5143E+01  2.3338E-01   1.4910E+01  0.000E+00  0.000E+00  0.000E+00  1.05797E+03  8.897E-01  1.200E+01  6.000E-02  1.297E+00
   1    8    6     2     5    1.4910E+01  2.3289E-01   1.4677E+01  0.000E+00  0.000E+00  0.000E+00  1.05324E+03  8.814E-01  1.200E+01  6.000E-02  1.294E+00
   1    3    5     3     1    2.0000E+00  2.8252E-01   1.7175E+00  0.000E+00  0.000E+00  0.000E+00  1.07555E+03  1.909E+00  9.636E+00  7.227E-02  1.955E+00
   1    3    6     3     2    1.7175E+00  2.4905E-01   1.4684E+00  0.000E+00  0.000E+00  0.000E+00  1.07264E+03  1.727E+00  8.909E+00  6.682E-02  1.864E+00
   1    3    7     3     3    1.4684E+00  1.9718E-01   1.2712E+00  0.000E+00  0.000E+00  0.000E+00  1.06987E+03  1.555E+00  8.218E+00  5.547E-02  1.777E+00
   1    4    8     3     4    1.2712E+00  2.2567E-01   1.0456E+00  0.000E+00  0.000E+00  0.000E+00  1.06682E+03  1.364E+00  7.455E+00  6.709E-02  1.682E+00
   1    5    8     3     5    1.0456E+00  1.5790E-01   8.8768E-01  0.000E+00  0.000E+00  0.000E+00  1.06362E+03  1.164E+00  6.655E+00  4.991E-02  1.582E+00
   1    6    8     3     6    8.8768E-01  5.5980E-02   8.3170E-01  0.000E+00  0.000E+00  0.000E+00  1.06158E+03  1.036E+00  6.145E+00  1.844E-02  1.518E+00
   1    5   10     4     1    1.0000E+01  9.0919E-02   9.9091E+00  0.000E+00  0.000E+00  0.000E+00  1.07836E+03  6.368E-01  1.000E+01  2.500E-02  1.212E+00
   1    5    9     4     2    9.9091E+00  1.8158E-01   9.7275E+00  0.000E+00  0.000E+00  0.000E+00  1.07154E+03  6.315E-01  1.000E+01  5.000E-02  1.211E+00
   1    6    8     4     3    9.7275E+00  1.2689E-01   9.6006E+00  0.000E+00  0.000E+00  0.000E+00  1.06381E+03  6.256E-01  1.000E+01  3.500E-02  1.209E+00
   1    6    8     5     1    1.0432E+01  2.2686E-01   1.0205E+01  0.000E+00  0.000E+00  0.000E+00  1.05868E+03  6.790E-01  1.542E+01  6.166E-02  1.226E+00
   1    7    7     5     2    1.0205E+01  2.7894E-01   9.9265E+00  0.000E+00  0.000E+00  0.000E+00  1.05417E+03  6.732E-01  1.519E+01  7.594E-02  1.224E+00
   1    8    7     5     3    9.9265E+00  1.9221E-01   9.7343E+00  0.000E+00  0.000E+00  0.000E+00  1.04992E+03  6.676E-01  1.497E+01  5.241E-02  1.223E+00
   1    8    6     5     4    9.7343E+00  1.3577E-01   9.5985E+00  0.000E+00  0.000E+00  0.000E+00  1.04691E+03  6.637E-01  1.482E+01  3.706E-02  1.221E+00
   1    9    6     6     1    2.4276E+01  2.5176E-01   2.4024E+01  0.000E+00  0.000E+00  0.000E+00  1.04392E+03  1.196E+00  1.200E+01  6.000E-02  1.399E+00
   1   10    7     6     2    2.4024E+01  2.5131E-01   2.3773E+01  0.000E+00  0.000E+00  0.000E+00  1.03937E+03  1.188E+00  1.200E+01  6.000E-02  1.396E+00
   1   11    7     6     3    2.3773E+01  2.5086E-01   2.3522E+01  0.000E+00  0.000E+00  0.000E+00  1.03482E+03  1.181E+00  1.200E+01  6.000E-02  1.394E+00
   1   12    7     6     4    2.3522E+01  2.5041E-01   2.3271E+01  0.000E+00  0.000E+00  0.000E+00  1.03026E+03  1.173E+00  1.200E+01  6.000E-02  1.391E+00
   1   13    7     6     5    2.3271E+01  7.9016E-03   2.3263E+01  0.000E+00  0.000E+00  0.000E+00  1.02708E+03  1.170E+00  1.200E+01  2.400E-02  1.097E-01
   1   14    9     7     1    1.5000E+02  1.3576E+00   1.4864E+02  0.000E+00  0.000E+00  0.000E+00  1.03987E+03  2.288E+00  5.529E+01  5.593E-01  8.091E-01
   1   13    8     7     2    1.4864E+02  1.9284E+00   1.4671E+02  0.000E+00  0.000E+00  0.000E+00  1.03478E+03  2.279E+00  5.526E+01  6.148E-01  1.046E+00
   1   13    7     7     3    1.4671E+02  1.6413E+00   1.4507E+02  0.000E+00  0.000E+00  0.000E+00  1.02969E+03  2.269E+00  5.521E+01  5.584E-01  9.798E-01
   1   13    6     8     1    1.6834E+02  1.0830E+00   1.6725E+02  0.000E+00  0.000E+00  0.000E+00  1.02481E+03  2.938E+00  4.260E+01  4.341E-01  8.317E-01
   1   13    5     8     2    1.6725E+02  3.3028E-01   1.6692E+02  0.000E+00  0.000E+00  0.000E+00  1.01856E+03  2.933E+00  4.253E+01  4.334E-01  2.540E-01
   1   13    4     8     3    1.6692E+02 -1.9051E+00   1.6883E+02  0.000E+00  0.000E+00  0.000E+00  1.01231E+03  2.938E+00  4.261E+01  4.342E+00 -1.463E-01
   1   13    3     8     4    1.6883E+02 -3.3994E+00   1.7223E+02  0.000E+00  0.000E+00  0.000E+00  1.00608E+03  2.956E+00  4.286E+01  4.367E+00 -2.595E-01
   1   13    2     8     5    1.7223E+02 -2.5176E+00   1.7474E+02  0.000E+00  0.000E+00  0.000E+00  9.99850E+02  2.975E+00  4.313E+01  4.396E+00 -1.909E-01
   1   13    1     8     6    1.7474E+02 -1.9673E+00   1.7671E+02  0.000E+00  0.000E+00  0.000E+00  9.94864E+02  2.989E+00  4.334E+01  2.650E+00 -2.475E-01





UNSATURATED ZONE PACKAGE VOLUMETRIC BUDGET FOR  TIME STEP    30 STRESS PERIOD   36
  ------------------------------------------------------------------------------



     CUMULATIVE VOLUMES      L**3       RATES FOR THIS TIME STEP      L**3/T
     ------------------                 ------------------------

           IN:                                      IN:
           ---                                      ---
        INFILTRATION =  1383212322.6509          INFILTRATION =           0.8475

          OUT:                                     OUT:
          ----                                     ----
              UZF ET =  1269101795.6836                UZF ET =           0.7500
        UZF RECHARGE =   113777767.5117          UZF RECHARGE =           0.0003

            IN - OUT =      332759.4556              IN - OUT =       9.7162E-02

          STORAGE:                                 STORAGE:
          --------                                 --------
      STORAGE CHANGE =      332765.3620        STORAGE CHANGE =       9.7162E-02

 PERCENT DISCREPANCY IS DIFFERENCE BETWEEN IN-OUT MINUS CHANGE IN STORAGE
 DIVIDED BY THE AVERAGE OF IN AND OUT TIMES 100

 PERCENT DISCREPANCY =           0.00     PERCENT DISCREPANCY =           0.00






1
  VOLUMETRIC BUDGET FOR AGRICULTURAL FIELDS AT  END OF TIME STEP   30, STRESS PERIOD  36
  ------------------------------------------------------------------------------

     CUMULATIVE VOLUMES      L**3       RATES FOR THIS TIME STEP      L**3/T
     ------------------                 ------------------------

           IN:                                      IN:
           ---                                      ---
               AG WELLS  =  1305126528.0000                 AG WELLS  =           0.0000
      DIVERSION SEGMENTS =           0.0000        DIVERSION SEGMENTS =           0.0000
           GW IRRIGATION =           0.0000             GW IRRIGATION =           0.0000
           SW IRRIGATION =           0.0000             SW IRRIGATION =           0.0000
        SYSTEM LOSSES GW =           0.0000          SYSTEM LOSSES GW =           0.0000
        SYSTEM LOSSES SW =           0.0000          SYSTEM LOSSES SW =           0.0000

                TOTAL IN =  1305126528.0000                  TOTAL IN =           0.0000

          OUT:                                     OUT:
          ----                                     ----
               AG WELLS  =           0.0000                 AG WELLS  =           0.0000
      DIVERSION SEGMENTS =           0.0000        DIVERSION SEGMENTS =           0.0000
           GW IRRIGATION =  1305126528.0000             GW IRRIGATION =           0.0000
           SW IRRIGATION =           0.0000             SW IRRIGATION =           0.0000
        SYSTEM LOSSES GW =           0.0000          SYSTEM LOSSES GW =           0.0000
        SYSTEM LOSSES SW =           0.0000          SYSTEM LOSSES SW =           0.0000

               TOTAL OUT =  1305126528.0000                 TOTAL OUT =           0.0000

                IN - OUT =           0.0000                  IN - OUT =           0.0000

     PERCENT DISCREPANCY =           0.00         PERCENT DISCREPANCY =           0.00



1
  VOLUMETRIC BUDGET FOR ENTIRE MODEL AT END OF TIME STEP   30, STRESS PERIOD  36
  ------------------------------------------------------------------------------

     CUMULATIVE VOLUMES      L**3       RATES FOR THIS TIME STEP      L**3/T
     ------------------                 ------------------------

           IN:                                      IN:
           ---                                      ---
             STORAGE     =  1708633472.0000               STORAGE     =           8.8809
       CONSTANT HEAD     =           0.0000         CONSTANT HEAD     =           0.0000
     HEAD DEP BOUNDS     =    26333080.0000       HEAD DEP BOUNDS     =           0.2872
      STREAM LEAKAGE     =  1129020288.0000        STREAM LEAKAGE     =          12.0771
        UZF RECHARGE     =   113777816.0000          UZF RECHARGE     =       3.3818E-04
               GW ET     =           0.0000                 GW ET     =           0.0000
     SURFACE LEAKAGE     =           0.0000       SURFACE LEAKAGE     =           0.0000
           AG WELLS      =           0.0000             AG WELLS      =           0.0000

                TOTAL IN =  2977764608.0000                  TOTAL IN =          21.2456

          OUT:                                     OUT:
          ----                                     ----
             STORAGE     =   682373952.0000               STORAGE     =          11.1672
       CONSTANT HEAD     =           0.0000         CONSTANT HEAD     =           0.0000
     HEAD DEP BOUNDS     =    26952972.0000       HEAD DEP BOUNDS     =           0.2890
      STREAM LEAKAGE     =   945692224.0000        STREAM LEAKAGE     =           9.7894
        UZF RECHARGE     =           0.0000          UZF RECHARGE     =           0.0000
               GW ET     =    17607600.0000                 GW ET     =           0.0000
     SURFACE LEAKAGE     =           0.0000       SURFACE LEAKAGE     =           0.0000
           AG WELLS      =  1305126528.0000             AG WELLS      =           0.0000

               TOTAL OUT =  2977753088.0000                 TOTAL OUT =          21.2456

                IN - OUT =       11520.0000                  IN - OUT =       9.5367E-06

     PERCENT DISCREPANCY =           0.00         PERCENT DISCREPANCY =           0.00






         TIME SUMMARY AT END OF TIME STEP   30 IN STRESS PERIOD   36
                    SECONDS     MINUTES      HOURS       DAYS        YEARS
                    -----------------------------------------------------------
   TIME STEP LENGTH  87667.      1461.1      24.352      1.0147     2.77799E-03
 STRESS PERIOD TIME 2.63000E+06  43833.      730.56      30.440     8.33397E-02
         TOTAL TIME 9.21360E+07 1.53560E+06  25593.      1066.4      2.9196    
1
1
                            STRESS PERIOD NO.   37, LENGTH =   2630000.    
                            -----------------------------------------------

                              NUMBER OF TIME STEPS =    30

                               MULTIPLIER FOR DELT =     1.000

                            INITIAL TIME STEP SIZE =   87666.66    

 REUSING NON-PARAMETER GHB CELLS FROM LAST STRESS PERIOD

      2 GHB CELLS

 REUSING STREAM SEGMENT DATA FROM LAST STRESS PERIOD



            AREAL INFILTRATION RATE
 READING ON UNIT   19 WITH FORMAT: (FREE)              

            1           2           3           4           5           6           7           8           9          10
 ........................................................................................................................
   1   1.0000E-10  2.0000E-10   0.000       0.000       0.000       0.000       0.000       0.000       0.000       0.000    
   2   2.0000E-10  1.0000E-10  2.0000E-10   0.000       0.000      8.0000E-10  8.0000E-10  5.0000E-10   0.000       0.000    
   3    0.000      5.0000E-10  1.0000E-10  1.0000E-10  8.0000E-10  8.0000E-10  5.0000E-10  5.0000E-10   0.000       0.000    
   4   8.0000E-10  5.0000E-10  1.0000E-10  1.0000E-10  1.0000E-10  1.0000E-10  1.0000E-10  1.0000E-10  2.0000E-10   0.000    
   5   8.0000E-10  5.0000E-10  1.0000E-10  1.0000E-10  1.0000E-10  1.0000E-10  1.0000E-10  1.0000E-10  1.0000E-10  1.0000E-10
   6   8.0000E-10  5.0000E-10  5.0000E-10  2.0000E-10  2.0000E-10  1.0000E-10  1.0000E-10  1.0000E-10  1.0000E-10  5.0000E-10
   7   8.0000E-10  5.0000E-10  5.0000E-10  2.0000E-10  2.0000E-10  1.0000E-10  1.0000E-10  2.0000E-10  2.0000E-10   0.000    
   8    0.000      5.0000E-10  5.0000E-10  2.0000E-10  2.0000E-10  1.0000E-10  1.0000E-10  2.0000E-10  5.0000E-10   0.000    
   9    0.000      5.0000E-10  5.0000E-10  2.0000E-10  2.0000E-10  1.0000E-10  1.0000E-10  2.0000E-10  5.0000E-10   0.000    
  10    0.000      5.0000E-10  5.0000E-10  2.0000E-10  2.0000E-10  1.0000E-10  1.0000E-10  2.0000E-10  5.0000E-10  8.0000E-10
  11    0.000      1.0000E-10  1.0000E-10  1.0000E-10  1.0000E-10  1.0000E-10  1.0000E-10  2.0000E-10  5.0000E-10   0.000    
  12   1.0000E-10  1.0000E-10  1.0000E-10  1.0000E-10  1.0000E-10  1.0000E-10  1.0000E-10  1.0000E-10  2.0000E-10   0.000    
  13   1.0000E-10  1.0000E-10  2.0000E-10  2.0000E-10  2.0000E-10  2.0000E-10  2.0000E-10  1.0000E-10  1.0000E-10   0.000    
  14    0.000      2.0000E-10  5.0000E-10  5.0000E-10  5.0000E-10  5.0000E-10  5.0000E-10  2.0000E-10  1.0000E-10   0.000    
  15    0.000       0.000      8.0000E-10  8.0000E-10  8.0000E-10  8.0000E-10   0.000       0.000       0.000       0.000    

                  ET RATE =  5.000000E-10

 USING ET EXTINCTION DEPTH FROM PREVIOUS STRESS PERIOD. CURRENT PERIOD IS:      37

 USING EXTINCTION WATER CONTENT FROM PREVIOUS STRESS PERIOD. CURRENT PERIOD IS:      37

 USING AIR ENTRY PRESSURE FROM PREVIOUS STRESS PERIOD. CURRENT PERIOD IS:      37

 USING ROOT PRESSURE HEAD FROM PREVIOUS STRESS PERIOD. CURRENT PERIOD IS:      37

 USING ROOT ACTIVITY FROM PREVIOUS STRESS PERIOD. CURRENT PERIOD IS:      37

 PROCESSING AG STRESS PERIOD DATA

 READING AG STRESS PERIOD DATA

 READING IRRIGATION WELL

 END PROCESSING AG STRESS PERIOD DATA OPTIONS
 
 SOLVING FOR HEAD 
                                                   Max.-Head-Change                         Max.-Flux-Residual
  Residual-Control   Outer-Iter.   Inner-Iter.     Column Row Layer    Maximum-Head-Change  Column Row Layer    Maximum-Flux-Residual          L2-NORM 
          0                 1           2             4    7     1       0.2728954312E-01       4    7    1         0.1434007271E+01      0.3353251903E+01
          0                 2           2             4    7     1      -0.2653106315E-02       4    7    1        -0.1433239638E+00      0.3351977030E+00
          0                 3           2             4    7     1       0.1805305903E-03       4    7    1         0.1002510700E-01      0.2345138976E-01
          0                 4           1             2   13     1       0.9575235513E-05       2   13    1         0.5913059076E-03      0.1126089106E-02

    ------------------------------------------------
       NWT REQUIRED            4 OUTER ITERATIONS 
       AND A TOTAL OF          7 INNER ITERATIONS.
    ------------------------------------------------

 NO OUTPUT CONTROL FOR STRESS PERIOD   37   TIME STEP    1
 
 SOLVING FOR HEAD 
                                                   Max.-Head-Change                         Max.-Flux-Residual
  Residual-Control   Outer-Iter.   Inner-Iter.     Column Row Layer    Maximum-Head-Change  Column Row Layer    Maximum-Flux-Residual          L2-NORM 
          0                 1           2             4    7     1       0.2698593040E-01       4    7    1         0.1417903859E+01      0.3323387643E+01
          0                 2           2             4    7     1      -0.2623588759E-02       4    7    1        -0.1417144611E+00      0.3322006285E+00
          0                 3           2             4    7     1       0.1785222541E-03       4    7    1         0.9912526173E-02      0.2324663858E-01
          0                 4           1             4    7     1      -0.7094666878E-05       4    7    1        -0.4049138979E-03      0.9499562984E-03

    ------------------------------------------------
       NWT REQUIRED            4 OUTER ITERATIONS 
       AND A TOTAL OF          7 INNER ITERATIONS.
    ------------------------------------------------

 NO OUTPUT CONTROL FOR STRESS PERIOD   37   TIME STEP    2
 
 SOLVING FOR HEAD 
                                                   Max.-Head-Change                         Max.-Flux-Residual
  Residual-Control   Outer-Iter.   Inner-Iter.     Column Row Layer    Maximum-Head-Change  Column Row Layer    Maximum-Flux-Residual          L2-NORM 
          0                 1           2             4    7     1       0.2668846414E-01       4    7    1         0.1402132779E+01      0.3293990829E+01
          0                 2           2             4    7     1      -0.2594664222E-02       4    7    1        -0.1401381753E+00      0.3291782892E+00
          0                 3           2             4    7     1       0.1765538837E-03       4    7    1         0.9802268849E-02      0.2303029991E-01
          0                 4           1             4    7     1      -0.7016441243E-05       4    7    1        -0.4004099765E-03      0.9411085448E-03

    ------------------------------------------------
       NWT REQUIRED            4 OUTER ITERATIONS 
       AND A TOTAL OF          7 INNER ITERATIONS.
    ------------------------------------------------

 NO OUTPUT CONTROL FOR STRESS PERIOD   37   TIME STEP    3
 
 SOLVING FOR HEAD 
                                                   Max.-Head-Change                         Max.-Flux-Residual
  Residual-Control   Outer-Iter.   Inner-Iter.     Column Row Layer    Maximum-Head-Change  Column Row Layer    Maximum-Flux-Residual          L2-NORM 
          0                 1           2             4    7     1       0.2639691313E-01       4    7    1         0.1386680604E+01      0.3265144091E+01
          0                 2           2             4    7     1      -0.2566323332E-02       4    7    1        -0.1385937640E+00      0.3263908013E+00
          0                 3           2             4    7     1       0.1746254212E-03       4    7    1         0.9694241065E-02      0.2283528033E-01
          0                 4           1             4    7     1      -0.6939801490E-05       4    7    1        -0.3959971425E-03      0.9331491372E-03

    ------------------------------------------------
       NWT REQUIRED            4 OUTER ITERATIONS 
       AND A TOTAL OF          7 INNER ITERATIONS.
    ------------------------------------------------

 NO OUTPUT CONTROL FOR STRESS PERIOD   37   TIME STEP    4
 
 SOLVING FOR HEAD 
                                                   Max.-Head-Change                         Max.-Flux-Residual
  Residual-Control   Outer-Iter.   Inner-Iter.     Column Row Layer    Maximum-Head-Change  Column Row Layer    Maximum-Flux-Residual          L2-NORM 
          0                 1           2             4    7     1       0.2611090277E-01       4    7    1         0.1371527382E+01      0.3236738805E+01
          0                 2           2             4    7     1      -0.2538516948E-02       4    7    1        -0.1370792331E+00      0.3235514853E+00
          0                 3           2             4    7     1       0.1727333292E-03       4    7    1         0.9588303362E-02      0.2263664059E-01
          0                 4           1             4    7     1      -0.6864607049E-05       4    7    1        -0.3916696812E-03      0.9250322833E-03

    ------------------------------------------------
       NWT REQUIRED            4 OUTER ITERATIONS 
       AND A TOTAL OF          7 INNER ITERATIONS.
    ------------------------------------------------

 NO OUTPUT CONTROL FOR STRESS PERIOD   37   TIME STEP    5
 
 SOLVING FOR HEAD 
                                                   Max.-Head-Change                         Max.-Flux-Residual
  Residual-Control   Outer-Iter.   Inner-Iter.     Column Row Layer    Maximum-Head-Change  Column Row Layer    Maximum-Flux-Residual          L2-NORM 
          0                 1           2             4    7     1       0.2583036306E-01       4    7    1         0.1356668952E+01      0.3208761425E+01
          0                 2           2             4    7     1      -0.2511242495E-02       4    7    1        -0.1355941667E+00      0.3207550132E+00
          0                 3           2             4    7     1       0.1708774333E-03       4    7    1         0.9484426666E-02      0.2244101645E-01
          0                 4           1             4    7     1      -0.6790851358E-05       4    7    1        -0.3874263925E-03      0.9170372498E-03

    ------------------------------------------------
       NWT REQUIRED            4 OUTER ITERATIONS 
       AND A TOTAL OF          7 INNER ITERATIONS.
    ------------------------------------------------

 NO OUTPUT CONTROL FOR STRESS PERIOD   37   TIME STEP    6
 
 SOLVING FOR HEAD 
                                                   Max.-Head-Change                         Max.-Flux-Residual
  Residual-Control   Outer-Iter.   Inner-Iter.     Column Row Layer    Maximum-Head-Change  Column Row Layer    Maximum-Flux-Residual          L2-NORM 
          0                 1           2             4    7     1       0.2555495537E-01       4    7    1         0.1342086865E+01      0.3181193771E+01
          0                 2           2             4    7     1      -0.2484466937E-02       4    7    1        -0.1341367207E+00      0.3179994712E+00
          0                 3           2             4    7     1       0.1690554856E-03       4    7    1         0.9382481967E-02      0.2224825705E-01
          0                 4           1             4    7     1      -0.6718444732E-05       4    7    1        -0.3832620519E-03      0.9091649832E-03

    ------------------------------------------------
       NWT REQUIRED            4 OUTER ITERATIONS 
       AND A TOTAL OF          7 INNER ITERATIONS.
    ------------------------------------------------

 NO OUTPUT CONTROL FOR STRESS PERIOD   37   TIME STEP    7
 
 SOLVING FOR HEAD 
                                                   Max.-Head-Change                         Max.-Flux-Residual
  Residual-Control   Outer-Iter.   Inner-Iter.     Column Row Layer    Maximum-Head-Change  Column Row Layer    Maximum-Flux-Residual          L2-NORM 
          0                 1           2             4    7     1       0.2528476117E-01       4    7    1         0.1327785461E+01      0.3154034367E+01
          0                 2           2             4    7     1      -0.2458198251E-02       4    7    1        -0.1327073290E+00      0.3152847287E+00
          0                 3           2             4    7     1       0.1672680277E-03       4    7    1         0.9282499592E-02      0.2205833816E-01
          0                 4           1             4    7     1      -0.6647408815E-05       4    7    1        -0.3791778599E-03      0.9014060091E-03

    ------------------------------------------------
       NWT REQUIRED            4 OUTER ITERATIONS 
       AND A TOTAL OF          7 INNER ITERATIONS.
    ------------------------------------------------

 NO OUTPUT CONTROL FOR STRESS PERIOD   37   TIME STEP    8
 
 SOLVING FOR HEAD 
                                                   Max.-Head-Change                         Max.-Flux-Residual
  Residual-Control   Outer-Iter.   Inner-Iter.     Column Row Layer    Maximum-Head-Change  Column Row Layer    Maximum-Flux-Residual          L2-NORM 
          0                 1           2             4    7     1       0.2501946108E-01       4    7    1         0.1313747070E+01      0.3127273474E+01
          0                 2           2             4    7     1      -0.2432405386E-02       4    7    1        -0.1313042254E+00      0.3126098226E+00
          0                 3           2             4    7     1       0.1655129482E-03       4    7    1         0.9184356039E-02      0.2187121301E-01
          0                 4           1             4    7     1      -0.6577659679E-05       4    7    1        -0.3751687962E-03      0.8937545330E-03

    ------------------------------------------------
       NWT REQUIRED            4 OUTER ITERATIONS 
       AND A TOTAL OF          7 INNER ITERATIONS.
    ------------------------------------------------

 NO OUTPUT CONTROL FOR STRESS PERIOD   37   TIME STEP    9
 
 SOLVING FOR HEAD 
                                                   Max.-Head-Change                         Max.-Flux-Residual
  Residual-Control   Outer-Iter.   Inner-Iter.     Column Row Layer    Maximum-Head-Change  Column Row Layer    Maximum-Flux-Residual          L2-NORM 
          0                 1           2             4    7     1       0.2475875063E-01       4    7    1         0.1299955131E+01      0.3100902208E+01
          0                 2           2             4    7     1      -0.2407058741E-02       4    7    1        -0.1299257545E+00      0.3099738563E+00
          0                 3           2             4    7     1       0.1637882316E-03       4    7    1         0.9087935499E-02      0.2168680307E-01
          0                 4           1             4    7     1      -0.6509117081E-05       4    7    1        -0.3712300954E-03      0.8862211671E-03

    ------------------------------------------------
       NWT REQUIRED            4 OUTER ITERATIONS 
       AND A TOTAL OF          7 INNER ITERATIONS.
    ------------------------------------------------

 NO OUTPUT CONTROL FOR STRESS PERIOD   37   TIME STEP   10
 
 SOLVING FOR HEAD 
                                                   Max.-Head-Change                         Max.-Flux-Residual
  Residual-Control   Outer-Iter.   Inner-Iter.     Column Row Layer    Maximum-Head-Change  Column Row Layer    Maximum-Flux-Residual          L2-NORM 
          0                 1           2             4    7     1       0.2450274027E-01       4    7    1         0.1286415753E+01      0.3074907465E+01
          0                 2           2             4    7     1      -0.2382169054E-02       4    7    1        -0.1285725270E+00      0.3073755346E+00
          0                 3           2             4    7     1       0.1620946091E-03       4    7    1         0.8993280687E-02      0.2150503408E-01
          0                 4           1             4    7     1      -0.6441810262E-05       4    7    1        -0.3673635447E-03      0.8787835134E-03

    ------------------------------------------------
       NWT REQUIRED            4 OUTER ITERATIONS 
       AND A TOTAL OF          7 INNER ITERATIONS.
    ------------------------------------------------

 NO OUTPUT CONTROL FOR STRESS PERIOD   37   TIME STEP   11
 
 SOLVING FOR HEAD 
                                                   Max.-Head-Change                         Max.-Flux-Residual
  Residual-Control   Outer-Iter.   Inner-Iter.     Column Row Layer    Maximum-Head-Change  Column Row Layer    Maximum-Flux-Residual          L2-NORM 
          0                 1           2             4    7     1       0.2425113619E-01       4    7    1         0.1273112767E+01      0.3049286028E+01
          0                 2           2             4    7     1      -0.2357707758E-02       4    7    1        -0.1272429269E+00      0.3048145244E+00
          0                 3           2             4    7     1       0.1604301372E-03       4    7    1         0.8900278580E-02      0.2132588293E-01
          0                 4           1             4    7     1      -0.6375661972E-05       4    7    1        -0.3635644975E-03      0.8714813079E-03

    ------------------------------------------------
       NWT REQUIRED            4 OUTER ITERATIONS 
       AND A TOTAL OF          7 INNER ITERATIONS.
    ------------------------------------------------

 NO OUTPUT CONTROL FOR STRESS PERIOD   37   TIME STEP   12
 
 SOLVING FOR HEAD 
                                                   Max.-Head-Change                         Max.-Flux-Residual
  Residual-Control   Outer-Iter.   Inner-Iter.     Column Row Layer    Maximum-Head-Change  Column Row Layer    Maximum-Flux-Residual          L2-NORM 
          0                 1           2             4    7     1       0.2400379738E-01       4    7    1         0.1260038239E+01      0.3024033245E+01
          0                 2           2             4    7     1      -0.2333661143E-02       4    7    1        -0.1259361608E+00      0.3022903857E+00
          0                 3           2             4    7     1       0.1587938817E-03       4    7    1         0.8808873639E-02      0.2114929648E-01
          0                 4           1             4    7     1      -0.6310635141E-05       4    7    1        -0.3598306855E-03      0.8642514931E-03

    ------------------------------------------------
       NWT REQUIRED            4 OUTER ITERATIONS 
       AND A TOTAL OF          7 INNER ITERATIONS.
    ------------------------------------------------

 NO OUTPUT CONTROL FOR STRESS PERIOD   37   TIME STEP   13
 
 SOLVING FOR HEAD 
                                                   Max.-Head-Change                         Max.-Flux-Residual
  Residual-Control   Outer-Iter.   Inner-Iter.     Column Row Layer    Maximum-Head-Change  Column Row Layer    Maximum-Flux-Residual          L2-NORM 
          0                 1           2             4    7     1       0.2376072090E-01       4    7    1         0.1247192156E+01      0.2999137977E+01
          0                 2           2             4    7     1      -0.2310028925E-02       4    7    1        -0.1246522279E+00      0.2998019660E+00
          0                 3           2             4    7     1       0.1571858247E-03       4    7    1         0.8719065853E-02      0.2097522422E-01
          0                 4           1             4    7     1      -0.6246728731E-05       4    7    1        -0.3561621263E-03      0.8571480026E-03

    ------------------------------------------------
       NWT REQUIRED            4 OUTER ITERATIONS 
       AND A TOTAL OF          7 INNER ITERATIONS.
    ------------------------------------------------

 NO OUTPUT CONTROL FOR STRESS PERIOD   37   TIME STEP   14
 
 SOLVING FOR HEAD 
                                                   Max.-Head-Change                         Max.-Flux-Residual
  Residual-Control   Outer-Iter.   Inner-Iter.     Column Row Layer    Maximum-Head-Change  Column Row Layer    Maximum-Flux-Residual          L2-NORM 
          0                 1           2             4    7     1       0.2352163468E-01       4    7    1         0.1234559768E+01      0.2974590529E+01
          0                 2           2             4    7     1      -0.2286784651E-02       4    7    1        -0.1233896535E+00      0.2973483040E+00
          0                 3           2             4    7     1       0.1556041657E-03       4    7    1         0.8630752048E-02      0.2080356381E-01
          0                 4           1             4    7     1      -0.6183872169E-05       4    7    1        -0.3525546142E-03      0.8501355839E-03

    ------------------------------------------------
       NWT REQUIRED            4 OUTER ITERATIONS 
       AND A TOTAL OF          7 INNER ITERATIONS.
    ------------------------------------------------

 NO OUTPUT CONTROL FOR STRESS PERIOD   37   TIME STEP   15
 
 SOLVING FOR HEAD 
                                                   Max.-Head-Change                         Max.-Flux-Residual
  Residual-Control   Outer-Iter.   Inner-Iter.     Column Row Layer    Maximum-Head-Change  Column Row Layer    Maximum-Flux-Residual          L2-NORM 
          0                 1           2             4    7     1       0.2328641486E-01       4    7    1         0.1222134266E+01      0.2950382460E+01
          0                 2           2             4    7     1      -0.2263916280E-02       4    7    1        -0.1221477572E+00      0.2949285903E+00
          0                 3           2             4    7     1       0.1540480850E-03       4    7    1         0.8543884637E-02      0.2063429477E-01
          0                 4           1             4    7     1      -0.6122031494E-05       4    7    1        -0.3490061645E-03      0.8432136413E-03

    ------------------------------------------------
       NWT REQUIRED            4 OUTER ITERATIONS 
       AND A TOTAL OF          7 INNER ITERATIONS.
    ------------------------------------------------

 NO OUTPUT CONTROL FOR STRESS PERIOD   37   TIME STEP   16
 
 SOLVING FOR HEAD 
                                                   Max.-Head-Change                         Max.-Flux-Residual
  Residual-Control   Outer-Iter.   Inner-Iter.     Column Row Layer    Maximum-Head-Change  Column Row Layer    Maximum-Flux-Residual          L2-NORM 
          0                 1           2             4    7     1       0.2305508366E-01       4    7    1         0.1209916531E+01      0.2926522193E+01
          0                 2           2             4    7     1      -0.2241425970E-02       4    7    1        -0.1209266271E+00      0.2925436381E+00
          0                 3           2             4    7     1       0.1525177296E-03       4    7    1         0.8458469771E-02      0.2046744937E-01
          0                 4           1             4    7     1      -0.6061213267E-05       4    7    1        -0.3455170527E-03      0.8363989010E-03

    ------------------------------------------------
       NWT REQUIRED            4 OUTER ITERATIONS 
       AND A TOTAL OF          7 INNER ITERATIONS.
    ------------------------------------------------

 NO OUTPUT CONTROL FOR STRESS PERIOD   37   TIME STEP   17
 
 SOLVING FOR HEAD 
                                                   Max.-Head-Change                         Max.-Flux-Residual
  Residual-Control   Outer-Iter.   Inner-Iter.     Column Row Layer    Maximum-Head-Change  Column Row Layer    Maximum-Flux-Residual          L2-NORM 
          0                 1           2             4    7     1       0.2282738708E-01       4    7    1         0.1197893113E+01      0.2902983554E+01
          0                 2           2             4    7     1      -0.2219289028E-02       4    7    1        -0.1197249187E+00      0.2901908269E+00
          0                 3           2             4    7     1       0.1510114193E-03       4    7    1         0.8374413419E-02      0.2030286329E-01
          0                 4           1             4    7     1      -0.6001350368E-05       4    7    1        -0.3420834282E-03      0.8296689926E-03

    ------------------------------------------------
       NWT REQUIRED            4 OUTER ITERATIONS 
       AND A TOTAL OF          7 INNER ITERATIONS.
    ------------------------------------------------

 NO OUTPUT CONTROL FOR STRESS PERIOD   37   TIME STEP   18
 
 SOLVING FOR HEAD 
                                                   Max.-Head-Change                         Max.-Flux-Residual
  Residual-Control   Outer-Iter.   Inner-Iter.     Column Row Layer    Maximum-Head-Change  Column Row Layer    Maximum-Flux-Residual          L2-NORM 
          0                 1           2             4    7     1       0.2260335746E-01       4    7    1         0.1186065444E+01      0.2879769999E+01
          0                 2           2             4    7     1      -0.2197508596E-02       4    7    1        -0.1185427753E+00      0.2878705304E+00
          0                 3           2             4    7     1       0.1495293678E-03       4    7    1         0.8291725585E-02      0.2014054584E-01
          0                 4           1             4    7     1      -0.5942451894E-05       4    7    1        -0.3387057213E-03      0.8230457503E-03

    ------------------------------------------------
       NWT REQUIRED            4 OUTER ITERATIONS 
       AND A TOTAL OF          7 INNER ITERATIONS.
    ------------------------------------------------

 NO OUTPUT CONTROL FOR STRESS PERIOD   37   TIME STEP   19
 
 SOLVING FOR HEAD 
                                                   Max.-Head-Change                         Max.-Flux-Residual
  Residual-Control   Outer-Iter.   Inner-Iter.     Column Row Layer    Maximum-Head-Change  Column Row Layer    Maximum-Flux-Residual          L2-NORM 
          0                 1           2             4    7     1       0.2238288745E-01       4    7    1         0.1174427901E+01      0.2856882511E+01
          0                 2           2             4    7     1      -0.2176074240E-02       4    7    1        -0.1173796347E+00      0.2855828024E+00
          0                 3           2             4    7     1       0.1480708654E-03       4    7    1         0.8210366975E-02      0.1998049817E-01
          0                 4           1             4    7     1      -0.5884489177E-05       4    7    1        -0.3353823022E-03      0.8165036533E-03

    ------------------------------------------------
       NWT REQUIRED            4 OUTER ITERATIONS 
       AND A TOTAL OF          7 INNER ITERATIONS.
    ------------------------------------------------

 NO OUTPUT CONTROL FOR STRESS PERIOD   37   TIME STEP   20
 
 SOLVING FOR HEAD 
                                                   Max.-Head-Change                         Max.-Flux-Residual
  Residual-Control   Outer-Iter.   Inner-Iter.     Column Row Layer    Maximum-Head-Change  Column Row Layer    Maximum-Flux-Residual          L2-NORM 
          0                 1           2             4    7     1       0.2216587373E-01       4    7    1         0.1162974917E+01      0.2834297878E+01
          0                 2           2             4    7     1      -0.2154976418E-02       4    7    1        -0.1162349407E+00      0.2833619123E+00
          0                 3           2             4    7     1       0.1466352624E-03       4    7    1         0.8130298637E-02      0.1982514353E-01
          0                 4           1             4    7     1      -0.5827436888E-05       4    7    1        -0.3321116096E-03      0.8101592321E-03

    ------------------------------------------------
       NWT REQUIRED            4 OUTER ITERATIONS 
       AND A TOTAL OF          7 INNER ITERATIONS.
    ------------------------------------------------

 NO OUTPUT CONTROL FOR STRESS PERIOD   37   TIME STEP   21
 
 SOLVING FOR HEAD 
                                                   Max.-Head-Change                         Max.-Flux-Residual
  Residual-Control   Outer-Iter.   Inner-Iter.     Column Row Layer    Maximum-Head-Change  Column Row Layer    Maximum-Flux-Residual          L2-NORM 
          0                 1           2             4    7     1       0.2195208521E-01       4    7    1         0.1151693805E+01      0.2811993910E+01
          0                 2           2             4    7     1      -0.2134191146E-02       4    7    1        -0.1151074251E+00      0.2810959991E+00
          0                 3           2             4    7     1       0.1452209274E-03       4    7    1         0.8051431918E-02      0.1966662792E-01
          0                 4           1             4    7     1      -0.5771229637E-05       4    7    1        -0.3288899879E-03      0.8037055022E-03

    ------------------------------------------------
       NWT REQUIRED            4 OUTER ITERATIONS 
       AND A TOTAL OF          7 INNER ITERATIONS.
    ------------------------------------------------

 NO OUTPUT CONTROL FOR STRESS PERIOD   37   TIME STEP   22
 
 SOLVING FOR HEAD 
                                                   Max.-Head-Change                         Max.-Flux-Residual
  Residual-Control   Outer-Iter.   Inner-Iter.     Column Row Layer    Maximum-Head-Change  Column Row Layer    Maximum-Flux-Residual          L2-NORM 
          0                 1           2             4    7     1       0.2174157139E-01       4    7    1         0.1140587271E+01      0.2789960364E+01
          0                 2           2             4    7     1      -0.2113724754E-02       4    7    1        -0.1139973582E+00      0.2788936454E+00
          0                 3           2             4    7     1       0.1438282904E-03       4    7    1         0.7973785691E-02      0.1951261052E-01
          0                 4           1             4    7     1      -0.5715884461E-05       4    7    1        -0.3257182229E-03      0.7975138754E-03

    ------------------------------------------------
       NWT REQUIRED            4 OUTER ITERATIONS 
       AND A TOTAL OF          7 INNER ITERATIONS.
    ------------------------------------------------

 NO OUTPUT CONTROL FOR STRESS PERIOD   37   TIME STEP   23
 
 SOLVING FOR HEAD 
                                                   Max.-Head-Change                         Max.-Flux-Residual
  Residual-Control   Outer-Iter.   Inner-Iter.     Column Row Layer    Maximum-Head-Change  Column Row Layer    Maximum-Flux-Residual          L2-NORM 
          0                 1           2             4    7     1       0.2153424823E-01       4    7    1         0.1129650497E+01      0.2768236924E+01
          0                 2           2             4    7     1      -0.2093568565E-02       4    7    1        -0.1129042587E+00      0.2767222938E+00
          0                 3           2             4    7     1       0.1424567614E-03       4    7    1         0.7897326291E-02      0.1936066834E-01
          0                 4           1             4    7     1      -0.5661378219E-05       4    7    1        -0.3225949381E-03      0.7911840830E-03

    ------------------------------------------------
       NWT REQUIRED            4 OUTER ITERATIONS 
       AND A TOTAL OF          7 INNER ITERATIONS.
    ------------------------------------------------

 NO OUTPUT CONTROL FOR STRESS PERIOD   37   TIME STEP   24
 
 SOLVING FOR HEAD 
                                                   Max.-Head-Change                         Max.-Flux-Residual
  Residual-Control   Outer-Iter.   Inner-Iter.     Column Row Layer    Maximum-Head-Change  Column Row Layer    Maximum-Flux-Residual          L2-NORM 
          0                 1           2             4    7     1       0.2132989010E-01       4    7    1         0.1118871849E+01      0.2746789644E+01
          0                 2           2             4    7     1      -0.2073700643E-02       4    7    1        -0.1118269636E+00      0.2745785233E+00
          0                 3           2             4    7     1       0.1411048475E-03       4    7    1         0.7821972376E-02      0.1921069020E-01
          0                 4           1             4    7     1      -0.5607651392E-05       4    7    1        -0.3195168085E-03      0.7850573382E-03

    ------------------------------------------------
       NWT REQUIRED            4 OUTER ITERATIONS 
       AND A TOTAL OF          7 INNER ITERATIONS.
    ------------------------------------------------

 NO OUTPUT CONTROL FOR STRESS PERIOD   37   TIME STEP   25
 
 SOLVING FOR HEAD 
                                                   Max.-Head-Change                         Max.-Flux-Residual
  Residual-Control   Outer-Iter.   Inner-Iter.     Column Row Layer    Maximum-Head-Change  Column Row Layer    Maximum-Flux-Residual          L2-NORM 
          0                 1           2             4    7     1       0.2112869303E-01       4    7    1         0.1108261540E+01      0.2725631433E+01
          0                 2           2             4    7     1      -0.2054140048E-02       4    7    1        -0.1107664939E+00      0.2724636500E+00
          0                 3           2             4    7     1       0.1397738459E-03       4    7    1         0.7747795357E-02      0.1906274477E-01
          0                 4           1             4    7     1      -0.5554755785E-05       4    7    1        -0.3164867617E-03      0.7790096078E-03

    ------------------------------------------------
       NWT REQUIRED            4 OUTER ITERATIONS 
       AND A TOTAL OF          7 INNER ITERATIONS.
    ------------------------------------------------

 NO OUTPUT CONTROL FOR STRESS PERIOD   37   TIME STEP   26
 
 SOLVING FOR HEAD 
                                                   Max.-Head-Change                         Max.-Flux-Residual
  Residual-Control   Outer-Iter.   Inner-Iter.     Column Row Layer    Maximum-Head-Change  Column Row Layer    Maximum-Flux-Residual          L2-NORM 
          0                 1           2             4    7     1       0.2093044100E-01       4    7    1         0.1097807823E+01      0.2704759399E+01
          0                 2           2             4    7     1      -0.2034865774E-02       4    7    1        -0.1097216752E+00      0.2703774172E+00
          0                 3           2             4    7     1       0.1384623272E-03       4    7    1         0.7674713093E-02      0.1891680670E-01
          0                 4           1             4    7     1      -0.5502634643E-05       4    7    1        -0.3135014294E-03      0.7730470937E-03

    ------------------------------------------------
       NWT REQUIRED            4 OUTER ITERATIONS 
       AND A TOTAL OF          7 INNER ITERATIONS.
    ------------------------------------------------

 NO OUTPUT CONTROL FOR STRESS PERIOD   37   TIME STEP   27
 
 SOLVING FOR HEAD 
                                                   Max.-Head-Change                         Max.-Flux-Residual
  Residual-Control   Outer-Iter.   Inner-Iter.     Column Row Layer    Maximum-Head-Change  Column Row Layer    Maximum-Flux-Residual          L2-NORM 
          0                 1           2             4    7     1       0.2073492593E-01       4    7    1         0.1087499495E+01      0.2684162186E+01
          0                 2           2             4    7     1      -0.2015857594E-02       4    7    1        -0.1086913879E+00      0.2683186430E+00
          0                 3           2             4    7     1       0.1371689147E-03       4    7    1         0.7602647254E-02      0.1877279229E-01
          0                 4           1             4    7     1      -0.5451233162E-05       4    7    1        -0.3105576350E-03      0.7671651131E-03

    ------------------------------------------------
       NWT REQUIRED            4 OUTER ITERATIONS 
       AND A TOTAL OF          7 INNER ITERATIONS.
    ------------------------------------------------

 NO OUTPUT CONTROL FOR STRESS PERIOD   37   TIME STEP   28
 
 SOLVING FOR HEAD 
                                                   Max.-Head-Change                         Max.-Flux-Residual
  Residual-Control   Outer-Iter.   Inner-Iter.     Column Row Layer    Maximum-Head-Change  Column Row Layer    Maximum-Flux-Residual          L2-NORM 
          0                 1           2             4    7     1       0.2054235154E-01       4    7    1         0.1077347683E+01      0.2663835620E+01
          0                 2           2             4    7     1      -0.1997165714E-02       4    7    1        -0.1076767443E+00      0.2663293529E+00
          0                 3           2             4    7     1       0.1358970243E-03       4    7    1         0.7531675594E-02      0.1863361928E-01
          0                 4           1             4    7     1      -0.5400686389E-05       4    7    1        -0.3076585044E-03      0.7614804581E-03

    ------------------------------------------------
       NWT REQUIRED            4 OUTER ITERATIONS 
       AND A TOTAL OF          7 INNER ITERATIONS.
    ------------------------------------------------

 NO OUTPUT CONTROL FOR STRESS PERIOD   37   TIME STEP   29
 
 SOLVING FOR HEAD 
                                                   Max.-Head-Change                         Max.-Flux-Residual
  Residual-Control   Outer-Iter.   Inner-Iter.     Column Row Layer    Maximum-Head-Change  Column Row Layer    Maximum-Flux-Residual          L2-NORM 
          0                 1           2             4    7     1       0.2035237277E-01       4    7    1         0.1067339415E+01      0.2643744281E+01
          0                 2           2             4    7     1      -0.1978665413E-02       4    7    1        -0.1066764481E+00      0.2642787288E+00
          0                 3           2             4    7     1       0.1346381724E-03       4    7    1         0.7461707674E-02      0.1849017910E-01
          0                 4           1             4    7     1      -0.5350658266E-05       4    7    1        -0.3048004019E-03      0.7556118668E-03

    ------------------------------------------------
       NWT REQUIRED            4 OUTER ITERATIONS 
       AND A TOTAL OF          7 INNER ITERATIONS.
    ------------------------------------------------

 NO OUTPUT CONTROL FOR STRESS PERIOD   37   TIME STEP   30



 STREAM LISTING     PERIOD     37   STEP       30

 LAYER ROW COL. STREAM  RCH.  FLOW INTO     FLOW TO   FLOW OUT OF   OVRLND.     DIRECT     STREAM       STREAM     STREAM     STREAM   STREAMBED  STREAMBED
                SEG.NO.  NO.  STRM. RCH.    AQUIFER    STRM. RCH.    RUNOFF     PRECIP       ET          HEAD       DEPTH      WIDTH   CONDCTNC.   GRADIENT

   1    1    1     1     1    1.9000E+01  2.1427E-01   1.8786E+01  0.000E+00  0.000E+00  0.000E+00  1.09413E+03  1.082E+00  1.166E+01  5.249E-02  1.361E+00
   1    2    2     1     2    1.8786E+01  3.3054E-01   1.8455E+01  0.000E+00  0.000E+00  0.000E+00  1.08914E+03  1.077E+00  1.158E+01  8.107E-02  1.359E+00
   1    3    3     1     3    1.8455E+01  2.8064E-01   1.8175E+01  0.000E+00  0.000E+00  0.000E+00  1.08349E+03  1.072E+00  1.149E+01  6.892E-02  1.357E+00
   1    3    4     1     4    1.8175E+01  2.5740E-01   1.7917E+01  0.000E+00  0.000E+00  0.000E+00  1.07848E+03  1.068E+00  1.140E+01  6.328E-02  1.356E+00
   1    4    5     2     1    1.5917E+01  3.0542E-01   1.5612E+01  0.000E+00  0.000E+00  0.000E+00  1.07285E+03  9.157E-01  1.200E+01  7.800E-02  1.305E+00
   1    5    6     2     2    1.5612E+01  2.3438E-01   1.5377E+01  0.000E+00  0.000E+00  0.000E+00  1.06742E+03  9.063E-01  1.200E+01  6.000E-02  1.302E+00
   1    6    6     2     3    1.5377E+01  2.3388E-01   1.5143E+01  0.000E+00  0.000E+00  0.000E+00  1.06269E+03  8.980E-01  1.200E+01  6.000E-02  1.299E+00
   1    7    6     2     4    1.5143E+01  2.3338E-01   1.4910E+01  0.000E+00  0.000E+00  0.000E+00  1.05797E+03  8.897E-01  1.200E+01  6.000E-02  1.297E+00
   1    8    6     2     5    1.4910E+01  2.3289E-01   1.4677E+01  0.000E+00  0.000E+00  0.000E+00  1.05324E+03  8.814E-01  1.200E+01  6.000E-02  1.294E+00
   1    3    5     3     1    2.0000E+00  2.8252E-01   1.7175E+00  0.000E+00  0.000E+00  0.000E+00  1.07555E+03  1.909E+00  9.636E+00  7.227E-02  1.955E+00
   1    3    6     3     2    1.7175E+00  2.4905E-01   1.4684E+00  0.000E+00  0.000E+00  0.000E+00  1.07264E+03  1.727E+00  8.909E+00  6.682E-02  1.864E+00
   1    3    7     3     3    1.4684E+00  1.9718E-01   1.2712E+00  0.000E+00  0.000E+00  0.000E+00  1.06987E+03  1.555E+00  8.218E+00  5.547E-02  1.777E+00
   1    4    8     3     4    1.2712E+00  2.2567E-01   1.0456E+00  0.000E+00  0.000E+00  0.000E+00  1.06682E+03  1.364E+00  7.455E+00  6.709E-02  1.682E+00
   1    5    8     3     5    1.0456E+00  1.5790E-01   8.8768E-01  0.000E+00  0.000E+00  0.000E+00  1.06362E+03  1.164E+00  6.655E+00  4.991E-02  1.582E+00
   1    6    8     3     6    8.8768E-01  5.5980E-02   8.3170E-01  0.000E+00  0.000E+00  0.000E+00  1.06158E+03  1.036E+00  6.145E+00  1.844E-02  1.518E+00
   1    5   10     4     1    1.0000E+01  9.0919E-02   9.9091E+00  0.000E+00  0.000E+00  0.000E+00  1.07836E+03  6.368E-01  1.000E+01  2.500E-02  1.212E+00
   1    5    9     4     2    9.9091E+00  1.8158E-01   9.7275E+00  0.000E+00  0.000E+00  0.000E+00  1.07154E+03  6.315E-01  1.000E+01  5.000E-02  1.211E+00
   1    6    8     4     3    9.7275E+00  1.2689E-01   9.6006E+00  0.000E+00  0.000E+00  0.000E+00  1.06381E+03  6.256E-01  1.000E+01  3.500E-02  1.209E+00
   1    6    8     5     1    1.0432E+01  2.2686E-01   1.0205E+01  0.000E+00  0.000E+00  0.000E+00  1.05868E+03  6.790E-01  1.542E+01  6.166E-02  1.226E+00
   1    7    7     5     2    1.0205E+01  2.7894E-01   9.9265E+00  0.000E+00  0.000E+00  0.000E+00  1.05417E+03  6.732E-01  1.519E+01  7.594E-02  1.224E+00
   1    8    7     5     3    9.9265E+00  1.9221E-01   9.7343E+00  0.000E+00  0.000E+00  0.000E+00  1.04992E+03  6.676E-01  1.497E+01  5.241E-02  1.223E+00
   1    8    6     5     4    9.7343E+00  1.3577E-01   9.5985E+00  0.000E+00  0.000E+00  0.000E+00  1.04691E+03  6.637E-01  1.482E+01  3.706E-02  1.221E+00
   1    9    6     6     1    2.4276E+01  2.5176E-01   2.4024E+01  0.000E+00  0.000E+00  0.000E+00  1.04392E+03  1.196E+00  1.200E+01  6.000E-02  1.399E+00
   1   10    7     6     2    2.4024E+01  2.5131E-01   2.3773E+01  0.000E+00  0.000E+00  0.000E+00  1.03937E+03  1.188E+00  1.200E+01  6.000E-02  1.396E+00
   1   11    7     6     3    2.3773E+01  2.5086E-01   2.3522E+01  0.000E+00  0.000E+00  0.000E+00  1.03482E+03  1.181E+00  1.200E+01  6.000E-02  1.394E+00
   1   12    7     6     4    2.3522E+01  2.5041E-01   2.3271E+01  0.000E+00  0.000E+00  0.000E+00  1.03026E+03  1.173E+00  1.200E+01  6.000E-02  1.391E+00
   1   13    7     6     5    2.3271E+01  8.4238E-03   2.3263E+01  0.000E+00  0.000E+00  0.000E+00  1.02708E+03  1.170E+00  1.200E+01  2.400E-02  1.170E-01
   1   14    9     7     1    1.5000E+02  1.3595E+00   1.4864E+02  0.000E+00  0.000E+00  0.000E+00  1.03987E+03  2.288E+00  5.529E+01  5.593E-01  8.102E-01
   1   13    8     7     2    1.4864E+02  1.9342E+00   1.4671E+02  0.000E+00  0.000E+00  0.000E+00  1.03478E+03  2.279E+00  5.526E+01  6.148E-01  1.049E+00
   1   13    7     7     3    1.4671E+02  1.6534E+00   1.4505E+02  0.000E+00  0.000E+00  0.000E+00  1.02969E+03  2.269E+00  5.521E+01  5.584E-01  9.870E-01
   1   13    6     8     1    1.6832E+02  1.0958E+00   1.6722E+02  0.000E+00  0.000E+00  0.000E+00  1.02481E+03  2.938E+00  4.260E+01  4.341E-01  8.415E-01
   1   13    5     8     2    1.6722E+02  3.4289E-01   1.6688E+02  0.000E+00  0.000E+00  0.000E+00  1.01856E+03  2.933E+00  4.253E+01  4.334E-01  2.637E-01
   1   13    4     8     3    1.6688E+02 -1.8616E+00   1.6874E+02  0.000E+00  0.000E+00  0.000E+00  1.01231E+03  2.938E+00  4.260E+01  4.341E+00 -1.429E-01
   1   13    3     8     4    1.6874E+02 -3.3782E+00   1.7212E+02  0.000E+00  0.000E+00  0.000E+00  1.00608E+03  2.955E+00  4.285E+01  4.366E+00 -2.579E-01
   1   13    2     8     5    1.7212E+02 -2.5133E+00   1.7463E+02  0.000E+00  0.000E+00  0.000E+00  9.99849E+02  2.974E+00  4.312E+01  4.394E+00 -1.906E-01
   1   13    1     8     6    1.7463E+02 -1.9664E+00   1.7660E+02  0.000E+00  0.000E+00  0.000E+00  9.94863E+02  2.988E+00  4.333E+01  2.649E+00 -2.474E-01





UNSATURATED ZONE PACKAGE VOLUMETRIC BUDGET FOR  TIME STEP    30 STRESS PERIOD   37
  ------------------------------------------------------------------------------



     CUMULATIVE VOLUMES      L**3       RATES FOR THIS TIME STEP      L**3/T
     ------------------                 ------------------------

           IN:                                      IN:
           ---                                      ---
        INFILTRATION =  1385441247.5237          INFILTRATION =           0.8475

          OUT:                                     OUT:
          ----                                     ----
              UZF ET =  1271074295.5816                UZF ET =           0.7500
        UZF RECHARGE =   113778541.8755          UZF RECHARGE =           0.0003

            IN - OUT =      588410.0666              IN - OUT =       9.7242E-02

          STORAGE:                                 STORAGE:
          --------                                 --------
      STORAGE CHANGE =      588415.9940        STORAGE CHANGE =       9.7242E-02

 PERCENT DISCREPANCY IS DIFFERENCE BETWEEN IN-OUT MINUS CHANGE IN STORAGE
 DIVIDED BY THE AVERAGE OF IN AND OUT TIMES 100

 PERCENT DISCREPANCY =           0.00     PERCENT DISCREPANCY =           0.00






1
  VOLUMETRIC BUDGET FOR AGRICULTURAL FIELDS AT  END OF TIME STEP   30, STRESS PERIOD  37
  ------------------------------------------------------------------------------

     CUMULATIVE VOLUMES      L**3       RATES FOR THIS TIME STEP      L**3/T
     ------------------                 ------------------------

           IN:                                      IN:
           ---                                      ---
               AG WELLS  =  1305126528.0000                 AG WELLS  =           0.0000
      DIVERSION SEGMENTS =           0.0000        DIVERSION SEGMENTS =           0.0000
           GW IRRIGATION =           0.0000             GW IRRIGATION =           0.0000
           SW IRRIGATION =           0.0000             SW IRRIGATION =           0.0000
        SYSTEM LOSSES GW =           0.0000          SYSTEM LOSSES GW =           0.0000
        SYSTEM LOSSES SW =           0.0000          SYSTEM LOSSES SW =           0.0000

                TOTAL IN =  1305126528.0000                  TOTAL IN =           0.0000

          OUT:                                     OUT:
          ----                                     ----
               AG WELLS  =           0.0000                 AG WELLS  =           0.0000
      DIVERSION SEGMENTS =           0.0000        DIVERSION SEGMENTS =           0.0000
           GW IRRIGATION =  1305126528.0000             GW IRRIGATION =           0.0000
           SW IRRIGATION =           0.0000             SW IRRIGATION =           0.0000
        SYSTEM LOSSES GW =           0.0000          SYSTEM LOSSES GW =           0.0000
        SYSTEM LOSSES SW =           0.0000          SYSTEM LOSSES SW =           0.0000

               TOTAL OUT =  1305126528.0000                 TOTAL OUT =           0.0000

                IN - OUT =           0.0000                  IN - OUT =           0.0000

     PERCENT DISCREPANCY =           0.00         PERCENT DISCREPANCY =           0.00



1
  VOLUMETRIC BUDGET FOR ENTIRE MODEL AT END OF TIME STEP   30, STRESS PERIOD  37
  ------------------------------------------------------------------------------

     CUMULATIVE VOLUMES      L**3       RATES FOR THIS TIME STEP      L**3/T
     ------------------                 ------------------------

           IN:                                      IN:
           ---                                      ---
             STORAGE     =  1729197568.0000               STORAGE     =           6.9650
       CONSTANT HEAD     =           0.0000         CONSTANT HEAD     =           0.0000
     HEAD DEP BOUNDS     =    27088698.0000       HEAD DEP BOUNDS     =           0.2874
      STREAM LEAKAGE     =  1160845312.0000        STREAM LEAKAGE     =          12.1229
        UZF RECHARGE     =   113778584.0000          UZF RECHARGE     =       2.5824E-04
               GW ET     =           0.0000                 GW ET     =           0.0000
     SURFACE LEAKAGE     =           0.0000       SURFACE LEAKAGE     =           0.0000
           AG WELLS      =           0.0000             AG WELLS      =           0.0000

                TOTAL IN =  3030910208.0000                  TOTAL IN =          19.3755

          OUT:                                     OUT:
          ----                                     ----
             STORAGE     =   709109312.0000               STORAGE     =           9.3671
       CONSTANT HEAD     =           0.0000         CONSTANT HEAD     =           0.0000
     HEAD DEP BOUNDS     =    27713120.0000       HEAD DEP BOUNDS     =           0.2890
      STREAM LEAKAGE     =   971341952.0000        STREAM LEAKAGE     =           9.7194
        UZF RECHARGE     =           0.0000          UZF RECHARGE     =           0.0000
               GW ET     =    17607600.0000                 GW ET     =           0.0000
     SURFACE LEAKAGE     =           0.0000       SURFACE LEAKAGE     =           0.0000
           AG WELLS      =  1305126528.0000             AG WELLS      =           0.0000

               TOTAL OUT =  3030898432.0000                 TOTAL OUT =          19.3755

                IN - OUT =       11776.0000                  IN - OUT =       1.3351E-05

     PERCENT DISCREPANCY =           0.00         PERCENT DISCREPANCY =           0.00






         TIME SUMMARY AT END OF TIME STEP   30 IN STRESS PERIOD   37
                    SECONDS     MINUTES      HOURS       DAYS        YEARS
                    -----------------------------------------------------------
   TIME STEP LENGTH  87667.      1461.1      24.352      1.0147     2.77799E-03
 STRESS PERIOD TIME 2.63000E+06  43833.      730.56      30.440     8.33397E-02
         TOTAL TIME 9.47660E+07 1.57943E+06  26324.      1096.8      3.0030    
1
1
                            STRESS PERIOD NO.   38, LENGTH =   2630000.    
                            -----------------------------------------------

                              NUMBER OF TIME STEPS =    30

                               MULTIPLIER FOR DELT =     1.000

                            INITIAL TIME STEP SIZE =   87666.66    

 REUSING NON-PARAMETER GHB CELLS FROM LAST STRESS PERIOD

      2 GHB CELLS

 REUSING STREAM SEGMENT DATA FROM LAST STRESS PERIOD



            AREAL INFILTRATION RATE
 READING ON UNIT   19 WITH FORMAT: (FREE)              

            1           2           3           4           5           6           7           8           9          10
 ........................................................................................................................
   1   1.0000E-10  2.0000E-10   0.000       0.000       0.000       0.000       0.000       0.000       0.000       0.000    
   2   2.0000E-10  1.0000E-10  2.0000E-10   0.000       0.000      8.0000E-10  8.0000E-10  5.0000E-10   0.000       0.000    
   3    0.000      5.0000E-10  1.0000E-10  1.0000E-10  8.0000E-10  8.0000E-10  5.0000E-10  5.0000E-10   0.000       0.000    
   4   8.0000E-10  5.0000E-10  1.0000E-10  1.0000E-10  1.0000E-10  1.0000E-10  1.0000E-10  1.0000E-10  2.0000E-10   0.000    
   5   8.0000E-10  5.0000E-10  1.0000E-10  1.0000E-10  1.0000E-10  1.0000E-10  1.0000E-10  1.0000E-10  1.0000E-10  1.0000E-10
   6   8.0000E-10  5.0000E-10  5.0000E-10  2.0000E-10  2.0000E-10  1.0000E-10  1.0000E-10  1.0000E-10  1.0000E-10  5.0000E-10
   7   8.0000E-10  5.0000E-10  5.0000E-10  2.0000E-10  2.0000E-10  1.0000E-10  1.0000E-10  2.0000E-10  2.0000E-10   0.000    
   8    0.000      5.0000E-10  5.0000E-10  2.0000E-10  2.0000E-10  1.0000E-10  1.0000E-10  2.0000E-10  5.0000E-10   0.000    
   9    0.000      5.0000E-10  5.0000E-10  2.0000E-10  2.0000E-10  1.0000E-10  1.0000E-10  2.0000E-10  5.0000E-10   0.000    
  10    0.000      5.0000E-10  5.0000E-10  2.0000E-10  2.0000E-10  1.0000E-10  1.0000E-10  2.0000E-10  5.0000E-10  8.0000E-10
  11    0.000      1.0000E-10  1.0000E-10  1.0000E-10  1.0000E-10  1.0000E-10  1.0000E-10  2.0000E-10  5.0000E-10   0.000    
  12   1.0000E-10  1.0000E-10  1.0000E-10  1.0000E-10  1.0000E-10  1.0000E-10  1.0000E-10  1.0000E-10  2.0000E-10   0.000    
  13   1.0000E-10  1.0000E-10  2.0000E-10  2.0000E-10  2.0000E-10  2.0000E-10  2.0000E-10  1.0000E-10  1.0000E-10   0.000    
  14    0.000      2.0000E-10  5.0000E-10  5.0000E-10  5.0000E-10  5.0000E-10  5.0000E-10  2.0000E-10  1.0000E-10   0.000    
  15    0.000       0.000      8.0000E-10  8.0000E-10  8.0000E-10  8.0000E-10   0.000       0.000       0.000       0.000    

                  ET RATE =  5.000000E-10

 USING ET EXTINCTION DEPTH FROM PREVIOUS STRESS PERIOD. CURRENT PERIOD IS:      38

 USING EXTINCTION WATER CONTENT FROM PREVIOUS STRESS PERIOD. CURRENT PERIOD IS:      38

 USING AIR ENTRY PRESSURE FROM PREVIOUS STRESS PERIOD. CURRENT PERIOD IS:      38

 USING ROOT PRESSURE HEAD FROM PREVIOUS STRESS PERIOD. CURRENT PERIOD IS:      38

 USING ROOT ACTIVITY FROM PREVIOUS STRESS PERIOD. CURRENT PERIOD IS:      38

 PROCESSING AG STRESS PERIOD DATA

 READING AG STRESS PERIOD DATA

 READING IRRIGATION WELL

 END PROCESSING AG STRESS PERIOD DATA OPTIONS
 
 SOLVING FOR HEAD 
                                                   Max.-Head-Change                         Max.-Flux-Residual
  Residual-Control   Outer-Iter.   Inner-Iter.     Column Row Layer    Maximum-Head-Change  Column Row Layer    Maximum-Flux-Residual          L2-NORM 
          0                 1           2             4    7     1       0.2016503138E-01       4    7    1         0.1057468964E+01      0.2623865731E+01
          0                 2           2             4    7     1      -0.1960451901E-02       4    7    1        -0.1056899264E+00      0.2622917892E+00
          0                 3           2             4    7     1       0.1333988336E-03       4    7    1         0.7392703161E-02      0.1835118152E-01
          0                 4           1             4    7     1      -0.5301405528E-05       4    7    1        -0.3019816427E-03      0.7499411776E-03

    ------------------------------------------------
       NWT REQUIRED            4 OUTER ITERATIONS 
       AND A TOTAL OF          7 INNER ITERATIONS.
    ------------------------------------------------

 NO OUTPUT CONTROL FOR STRESS PERIOD   38   TIME STEP    1
 
 SOLVING FOR HEAD 
                                                   Max.-Head-Change                         Max.-Flux-Residual
  Residual-Control   Outer-Iter.   Inner-Iter.     Column Row Layer    Maximum-Head-Change  Column Row Layer    Maximum-Flux-Residual          L2-NORM 
          0                 1           2             4    7     1       0.1998037272E-01       4    7    1         0.1047740944E+01      0.2604248920E+01
          0                 2           2             4    7     1      -0.1942499208E-02       4    7    1        -0.1047176403E+00      0.2603310038E+00
          0                 3           2             4    7     1       0.1321772428E-03       4    7    1         0.7324694414E-02      0.1821401332E-01
          0                 4           1             4    7     1      -0.5252858291E-05       4    7    1        -0.2992035681E-03      0.7443346051E-03

    ------------------------------------------------
       NWT REQUIRED            4 OUTER ITERATIONS 
       AND A TOTAL OF          7 INNER ITERATIONS.
    ------------------------------------------------

 NO OUTPUT CONTROL FOR STRESS PERIOD   38   TIME STEP    2
 
 SOLVING FOR HEAD 
                                                   Max.-Head-Change                         Max.-Flux-Residual
  Residual-Control   Outer-Iter.   Inner-Iter.     Column Row Layer    Maximum-Head-Change  Column Row Layer    Maximum-Flux-Residual          L2-NORM 
          0                 1           2             4    7     1       0.1979807189E-01       4    7    1         0.1038137405E+01      0.2584887503E+01
          0                 2           2             4    7     1      -0.1924775747E-02       4    7    1        -0.1037577958E+00      0.2583957416E+00
          0                 3           2             4    7     1       0.1309712494E-03       4    7    1         0.7257555877E-02      0.1807862036E-01
          0                 4           1             4    7     1      -0.5204930786E-05       4    7    1        -0.2964610469E-03      0.7388090123E-03

    ------------------------------------------------
       NWT REQUIRED            4 OUTER ITERATIONS 
       AND A TOTAL OF          7 INNER ITERATIONS.
    ------------------------------------------------

 NO OUTPUT CONTROL FOR STRESS PERIOD   38   TIME STEP    3
 
 SOLVING FOR HEAD 
                                                   Max.-Head-Change                         Max.-Flux-Residual
  Residual-Control   Outer-Iter.   Inner-Iter.     Column Row Layer    Maximum-Head-Change  Column Row Layer    Maximum-Flux-Residual          L2-NORM 
          0                 1           2             4    7     1       0.1961835239E-01       4    7    1         0.1028670729E+01      0.2565781614E+01
          0                 2           2             4    7     1      -0.1907303247E-02       4    7    1        -0.1028116306E+00      0.2564860403E+00
          0                 3           2             4    7     1       0.1297823326E-03       4    7    1         0.7191374194E-02      0.1794504935E-01
          0                 4           1             4    7     1      -0.5157681383E-05       4    7    1        -0.2937575800E-03      0.7333492869E-03

    ------------------------------------------------
       NWT REQUIRED            4 OUTER ITERATIONS 
       AND A TOTAL OF          7 INNER ITERATIONS.
    ------------------------------------------------

 NO OUTPUT CONTROL FOR STRESS PERIOD   38   TIME STEP    4
 
 SOLVING FOR HEAD 
                                                   Max.-Head-Change                         Max.-Flux-Residual
  Residual-Control   Outer-Iter.   Inner-Iter.     Column Row Layer    Maximum-Head-Change  Column Row Layer    Maximum-Flux-Residual          L2-NORM 
          0                 1           2             4    7     1       0.1944115779E-01       4    7    1         0.1019337890E+01      0.2546922632E+01
          0                 2           2             4    7     1      -0.1890076224E-02       4    7    1        -0.1018788421E+00      0.2546010078E+00
          0                 3           2             4    7     1       0.1286101197E-03       4    7    1         0.7126128190E-02      0.1781316785E-01
          0                 4           1             4    7     1      -0.5111096496E-05       4    7    1        -0.2910923602E-03      0.7279545722E-03

    ------------------------------------------------
       NWT REQUIRED            4 OUTER ITERATIONS 
       AND A TOTAL OF          7 INNER ITERATIONS.
    ------------------------------------------------

 NO OUTPUT CONTROL FOR STRESS PERIOD   38   TIME STEP    5
 
 SOLVING FOR HEAD 
                                                   Max.-Head-Change                         Max.-Flux-Residual
  Residual-Control   Outer-Iter.   Inner-Iter.     Column Row Layer    Maximum-Head-Change  Column Row Layer    Maximum-Flux-Residual          L2-NORM 
          0                 1           2             4    7     1       0.1926616727E-01       4    7    1         0.1010121347E+01      0.2528305326E+01
          0                 2           2             4    7     1      -0.1873063484E-02       4    7    1        -0.1009576771E+00      0.2527401437E+00
          0                 3           2             4    7     1       0.1274524876E-03       4    7    1         0.7061695212E-02      0.1768299585E-01
          0                 4           1             4    7     1      -0.5065090931E-05       4    7    1        -0.2884603543E-03      0.7226361795E-03

    ------------------------------------------------
       NWT REQUIRED            4 OUTER ITERATIONS 
       AND A TOTAL OF          7 INNER ITERATIONS.
    ------------------------------------------------

 NO OUTPUT CONTROL FOR STRESS PERIOD   38   TIME STEP    6
 
 SOLVING FOR HEAD 
                                                   Max.-Head-Change                         Max.-Flux-Residual
  Residual-Control   Outer-Iter.   Inner-Iter.     Column Row Layer    Maximum-Head-Change  Column Row Layer    Maximum-Flux-Residual          L2-NORM 
          0                 1           2             4    7     1       0.1909360972E-01       4    7    1         0.1001033698E+01      0.2509926226E+01
          0                 2           2             4    7     1      -0.1856287281E-02       4    7    1        -0.1000493947E+00      0.2509030944E+00
          0                 3           2             4    7     1       0.1263109507E-03       4    7    1         0.6998163353E-02      0.1755449440E-01
          0                 4           1             4    7     1      -0.5019724900E-05       4    7    1        -0.2858651351E-03      0.7173862511E-03

    ------------------------------------------------
       NWT REQUIRED            4 OUTER ITERATIONS 
       AND A TOTAL OF          7 INNER ITERATIONS.
    ------------------------------------------------

 NO OUTPUT CONTROL FOR STRESS PERIOD   38   TIME STEP    7
 
 SOLVING FOR HEAD 
                                                   Max.-Head-Change                         Max.-Flux-Residual
  Residual-Control   Outer-Iter.   Inner-Iter.     Column Row Layer    Maximum-Head-Change  Column Row Layer    Maximum-Flux-Residual          L2-NORM 
          0                 1           2             4    7     1       0.1892343611E-01       4    7    1         0.9920721932E+00      0.2491789549E+01
          0                 2           2             4    7     1      -0.1839742849E-02       4    7    1        -0.9915372034E-01      0.2490902496E+00
          0                 3           2             4    7     1       0.1251851850E-03       4    7    1         0.6935513372E-02      0.1742767786E-01
          0                 4           1             4    7     1      -0.4974985854E-05       4    7    1        -0.2833059775E-03      0.7122094184E-03

    ------------------------------------------------
       NWT REQUIRED            4 OUTER ITERATIONS 
       AND A TOTAL OF          7 INNER ITERATIONS.
    ------------------------------------------------

 NO OUTPUT CONTROL FOR STRESS PERIOD   38   TIME STEP    8
 
 SOLVING FOR HEAD 
                                                   Max.-Head-Change                         Max.-Flux-Residual
  Residual-Control   Outer-Iter.   Inner-Iter.     Column Row Layer    Maximum-Head-Change  Column Row Layer    Maximum-Flux-Residual          L2-NORM 
          0                 1           2             4    7     1       0.1875532478E-01       4    7    1         0.9832196748E+00      0.2473872845E+01
          0                 2           2             4    7     1      -0.1823398915E-02       4    7    1        -0.9826893885E-01      0.2472994066E+00
          0                 3           2             4    7     1       0.1240730618E-03       4    7    1         0.6873625334E-02      0.1730239020E-01
          0                 4           1             4    7     1      -0.4930788714E-05       4    7    1        -0.2807779135E-03      0.7070929087E-03

    ------------------------------------------------
       NWT REQUIRED            4 OUTER ITERATIONS 
       AND A TOTAL OF          7 INNER ITERATIONS.
    ------------------------------------------------

 NO OUTPUT CONTROL FOR STRESS PERIOD   38   TIME STEP    9
 
 SOLVING FOR HEAD 
                                                   Max.-Head-Change                         Max.-Flux-Residual
  Residual-Control   Outer-Iter.   Inner-Iter.     Column Row Layer    Maximum-Head-Change  Column Row Layer    Maximum-Flux-Residual          L2-NORM 
          0                 1           2             4    7     1       0.1858964847E-01       4    7    1         0.9744960082E+00      0.2456195525E+01
          0                 2           2             4    7     1      -0.1807291718E-02       4    7    1        -0.9739703579E-01      0.2455324894E+00
          0                 3           2             4    7     1       0.1229770475E-03       4    7    1         0.6812638103E-02      0.1717878025E-01
          0                 4           1             4    7     1      -0.4887231913E-05       4    7    1        -0.2782866632E-03      0.7020381992E-03

    ------------------------------------------------
       NWT REQUIRED            4 OUTER ITERATIONS 
       AND A TOTAL OF          7 INNER ITERATIONS.
    ------------------------------------------------

 NO OUTPUT CONTROL FOR STRESS PERIOD   38   TIME STEP   10
 
 SOLVING FOR HEAD 
                                                   Max.-Head-Change                         Max.-Flux-Residual
  Residual-Control   Outer-Iter.   Inner-Iter.     Column Row Layer    Maximum-Head-Change  Column Row Layer    Maximum-Flux-Residual          L2-NORM 
          0                 1           2             4    7     1       0.1842608022E-01       4    7    1         0.9658839756E+00      0.2438732225E+01
          0                 2           2             4    7     1      -0.1791389470E-02       4    7    1        -0.9653629032E-01      0.2437869658E+00
          0                 3           2             4    7     1       0.1218949791E-03       4    7    1         0.6752431314E-02      0.1705666933E-01
          0                 4           1             4    7     1      -0.4844229336E-05       4    7    1        -0.2758272888E-03      0.6970304765E-03

    ------------------------------------------------
       NWT REQUIRED            4 OUTER ITERATIONS 
       AND A TOTAL OF          7 INNER ITERATIONS.
    ------------------------------------------------

 NO OUTPUT CONTROL FOR STRESS PERIOD   38   TIME STEP   11
 
 SOLVING FOR HEAD 
                                                   Max.-Head-Change                         Max.-Flux-Residual
  Residual-Control   Outer-Iter.   Inner-Iter.     Column Row Layer    Maximum-Head-Change  Column Row Layer    Maximum-Flux-Residual          L2-NORM 
          0                 1           2             4    7     1       0.1826458389E-01       4    7    1         0.9573812411E+00      0.2421487593E+01
          0                 2           2             4    7     1      -0.1775688657E-02       4    7    1        -0.9568646897E-01      0.2420633064E+00
          0                 3           2             4    7     1       0.1208266171E-03       4    7    1         0.6692988642E-02      0.1693610468E-01
          0                 4           1             4    7     1      -0.4801771659E-05       4    7    1        -0.2733991273E-03      0.6921263800E-03

    ------------------------------------------------
       NWT REQUIRED            4 OUTER ITERATIONS 
       AND A TOTAL OF          7 INNER ITERATIONS.
    ------------------------------------------------

 NO OUTPUT CONTROL FOR STRESS PERIOD   38   TIME STEP   12
 
 SOLVING FOR HEAD 
                                                   Max.-Head-Change                         Max.-Flux-Residual
  Residual-Control   Outer-Iter.   Inner-Iter.     Column Row Layer    Maximum-Head-Change  Column Row Layer    Maximum-Flux-Residual          L2-NORM 
          0                 1           2             4    7     1       0.1810525282E-01       4    7    1         0.9489932418E+00      0.2404459678E+01
          0                 2           2             4    7     1      -0.1760198354E-02       4    7    1        -0.9484811514E-01      0.2403612955E+00
          0                 3           2             4    7     1       0.1197725793E-03       4    7    1         0.6634348089E-02      0.1681703047E-01
          0                 4           1             4    7     1      -0.4759882712E-05       4    7    1        -0.2710037231E-03      0.6872632484E-03

    ------------------------------------------------
       NWT REQUIRED            4 OUTER ITERATIONS 
       AND A TOTAL OF          7 INNER ITERATIONS.
    ------------------------------------------------

 NO OUTPUT CONTROL FOR STRESS PERIOD   38   TIME STEP   13
 
 SOLVING FOR HEAD 
                                                   Max.-Head-Change                         Max.-Flux-Residual
  Residual-Control   Outer-Iter.   Inner-Iter.     Column Row Layer    Maximum-Head-Change  Column Row Layer    Maximum-Flux-Residual          L2-NORM 
          0                 1           2             4    7     1       0.1794804949E-01       4    7    1         0.9407175075E+00      0.2387656052E+01
          0                 2           2             4    7     1      -0.1747115260E-02       4    7    1        -0.9416460356E-01      0.2387200556E+00
          0                 3           2             4    7     1       0.1188823889E-03       4    7    1         0.6586539371E-02      0.1670220247E-01
          0                 4           1             4    7     1      -0.4724509066E-05       4    7    1        -0.2690508779E-03      0.6825840603E-03

    ------------------------------------------------
       NWT REQUIRED            4 OUTER ITERATIONS 
       AND A TOTAL OF          7 INNER ITERATIONS.
    ------------------------------------------------

 NO OUTPUT CONTROL FOR STRESS PERIOD   38   TIME STEP   14
 
 SOLVING FOR HEAD 
                                                   Max.-Head-Change                         Max.-Flux-Residual
  Residual-Control   Outer-Iter.   Inner-Iter.     Column Row Layer    Maximum-Head-Change  Column Row Layer    Maximum-Flux-Residual          L2-NORM 
          0                 1           2             4    7     1       0.1778727851E-01       4    7    1         0.9324275005E+00      0.2371016103E+01
          0                 2           2             4    7     1      -0.1729285480E-02       4    7    1        -0.9319245619E-01      0.2370185005E+00
          0                 3           1             4    7     1       0.1176691604E-03       4    7    1         0.6518539973E-02      0.1658319260E-01
          0                 4           1             4    7     1      -0.4676297311E-05       4    7    1        -0.2662731683E-03      0.6776999409E-03

    ------------------------------------------------
       NWT REQUIRED            4 OUTER ITERATIONS 
       AND A TOTAL OF          6 INNER ITERATIONS.
    ------------------------------------------------

 NO OUTPUT CONTROL FOR STRESS PERIOD   38   TIME STEP   15
 
 SOLVING FOR HEAD 
                                                   Max.-Head-Change                         Max.-Flux-Residual
  Residual-Control   Outer-Iter.   Inner-Iter.     Column Row Layer    Maximum-Head-Change  Column Row Layer    Maximum-Flux-Residual          L2-NORM 
          0                 1           2             4    7     1       0.1763107738E-01       4    7    1         0.9241943432E+00      0.2354569812E+01
          0                 2           2             4    7     1      -0.1714099448E-02       4    7    1        -0.9236957673E-01      0.2353746552E+00
          0                 3           1             4    7     1       0.1166358261E-03       4    7    1         0.6460981774E-02      0.1646820166E-01
          0                 4           1             4    7     1      -0.4635231526E-05       4    7    1        -0.2639219786E-03      0.6729962726E-03

    ------------------------------------------------
       NWT REQUIRED            4 OUTER ITERATIONS 
       AND A TOTAL OF          6 INNER ITERATIONS.
    ------------------------------------------------

 NO OUTPUT CONTROL FOR STRESS PERIOD   38   TIME STEP   16
 
 SOLVING FOR HEAD 
                                                   Max.-Head-Change                         Max.-Flux-Residual
  Residual-Control   Outer-Iter.   Inner-Iter.     Column Row Layer    Maximum-Head-Change  Column Row Layer    Maximum-Flux-Residual          L2-NORM 
          0                 1           2             4    7     1       0.1747712348E-01       4    7    1         0.9160808891E+00      0.2338326277E+01
          0                 2           2             4    7     1      -0.1699131896E-02       4    7    1        -0.9155866142E-01      0.2337510600E+00
          0                 3           1             4    7     1       0.1156173584E-03       4    7    1         0.6404260434E-02      0.1635463386E-01
          0                 4           1             4    7     1      -0.4594756461E-05       4    7    1        -0.2616049844E-03      0.6683696493E-03

    ------------------------------------------------
       NWT REQUIRED            4 OUTER ITERATIONS 
       AND A TOTAL OF          6 INNER ITERATIONS.
    ------------------------------------------------

 NO OUTPUT CONTROL FOR STRESS PERIOD   38   TIME STEP   17
 
 SOLVING FOR HEAD 
                                                   Max.-Head-Change                         Max.-Flux-Residual
  Residual-Control   Outer-Iter.   Inner-Iter.     Column Row Layer    Maximum-Head-Change  Column Row Layer    Maximum-Flux-Residual          L2-NORM 
          0                 1           2             4    7     1       0.1732523307E-01       4    7    1         0.9080766391E+00      0.2322288632E+01
          0                 2           2             4    7     1      -0.1684364962E-02       4    7    1        -0.9075866087E-01      0.2321480430E+00
          0                 3           1             4    7     1       0.1146125416E-03       4    7    1         0.6348302563E-02      0.1624249480E-01
          0                 4           1             4    7     1      -0.4554823532E-05       4    7    1        -0.2593191523E-03      0.6638087432E-03

    ------------------------------------------------
       NWT REQUIRED            4 OUTER ITERATIONS 
       AND A TOTAL OF          6 INNER ITERATIONS.
    ------------------------------------------------

 NO OUTPUT CONTROL FOR STRESS PERIOD   38   TIME STEP   18
 
 SOLVING FOR HEAD 
                                                   Max.-Head-Change                         Max.-Flux-Residual
  Residual-Control   Outer-Iter.   Inner-Iter.     Column Row Layer    Maximum-Head-Change  Column Row Layer    Maximum-Flux-Residual          L2-NORM 
          0                 1           2             4    7     1       0.1717548806E-01       4    7    1         0.9001866888E+00      0.2306446687E+01
          0                 2           2             4    7     1      -0.1669806608E-02       4    7    1        -0.8997008441E-01      0.2305645639E+00
          0                 3           1             4    7     1       0.1136219181E-03       4    7    1         0.6293143790E-02      0.1613171426E-01
          0                 4           1             4    7     1      -0.4515455188E-05       4    7    1        -0.2570659899E-03      0.6592662579E-03

    ------------------------------------------------
       NWT REQUIRED            4 OUTER ITERATIONS 
       AND A TOTAL OF          6 INNER ITERATIONS.
    ------------------------------------------------

 NO OUTPUT CONTROL FOR STRESS PERIOD   38   TIME STEP   19
 
 SOLVING FOR HEAD 
                                                   Max.-Head-Change                         Max.-Flux-Residual
  Residual-Control   Outer-Iter.   Inner-Iter.     Column Row Layer    Maximum-Head-Change  Column Row Layer    Maximum-Flux-Residual          L2-NORM 
          0                 1           2             4    7     1       0.1702784308E-01       4    7    1         0.8924079739E+00      0.2290799180E+01
          0                 2           2             4    7     1      -0.1655452423E-02       4    7    1        -0.8919262574E-01      0.2290005668E+00
          0                 3           1             4    7     1       0.1126451870E-03       4    7    1         0.6238762673E-02      0.1602231464E-01
          0                 4           1             4    7     1      -0.4476638652E-05       4    7    1        -0.2548445709E-03      0.6547973411E-03

    ------------------------------------------------
       NWT REQUIRED            4 OUTER ITERATIONS 
       AND A TOTAL OF          6 INNER ITERATIONS.
    ------------------------------------------------

 NO OUTPUT CONTROL FOR STRESS PERIOD   38   TIME STEP   20
 
 SOLVING FOR HEAD 
                                                   Max.-Head-Change                         Max.-Flux-Residual
  Residual-Control   Outer-Iter.   Inner-Iter.     Column Row Layer    Maximum-Head-Change  Column Row Layer    Maximum-Flux-Residual          L2-NORM 
          0                 1           2             4    7     1       0.1688224644E-01       4    7    1         0.8847381425E+00      0.2275342580E+01
          0                 2           2             4    7     1      -0.1641297381E-02       4    7    1        -0.8842604980E-01      0.2274556075E+00
          0                 3           1             4    7     1       0.1116820067E-03       4    7    1         0.6185142767E-02      0.1591423516E-01
          0                 4           1             4    7     1      -0.4438360566E-05       4    7    1        -0.2526542644E-03      0.6503697201E-03

    ------------------------------------------------
       NWT REQUIRED            4 OUTER ITERATIONS 
       AND A TOTAL OF          6 INNER ITERATIONS.
    ------------------------------------------------

 NO OUTPUT CONTROL FOR STRESS PERIOD   38   TIME STEP   21
 
 SOLVING FOR HEAD 
                                                   Max.-Head-Change                         Max.-Flux-Residual
  Residual-Control   Outer-Iter.   Inner-Iter.     Column Row Layer    Maximum-Head-Change  Column Row Layer    Maximum-Flux-Residual          L2-NORM 
          0                 1           2             4    7     1       0.1673851677E-01       4    7    1         0.8771672010E+00      0.2260070597E+01
          0                 2           2             4    7     1      -0.1627323850E-02       4    7    1        -0.8766935773E-01      0.2259291382E+00
          0                 3           1             4    7     1       0.1107311770E-03       4    7    1         0.6132214201E-02      0.1580744162E-01
          0                 4           1             4    7     1      -0.4400573616E-05       4    7    1        -0.2504921874E-03      0.6464142096E-03

    ------------------------------------------------
       NWT REQUIRED            4 OUTER ITERATIONS 
       AND A TOTAL OF          6 INNER ITERATIONS.
    ------------------------------------------------

 NO OUTPUT CONTROL FOR STRESS PERIOD   38   TIME STEP   22
 
 SOLVING FOR HEAD 
                                                   Max.-Head-Change                         Max.-Flux-Residual
  Residual-Control   Outer-Iter.   Inner-Iter.     Column Row Layer    Maximum-Head-Change  Column Row Layer    Maximum-Flux-Residual          L2-NORM 
          0                 1           2             4    7     1       0.1659674739E-01       4    7    1         0.8697003714E+00      0.2244985874E+01
          0                 2           2             4    7     1      -0.1613540902E-02       4    7    1        -0.8692307148E-01      0.2244213625E+00
          0                 3           1             4    7     1       0.1097933159E-03       4    7    1         0.6080013515E-02      0.1570197036E-01
          0                 4           1             4    7     1      -0.4363301861E-05       4    7    1        -0.2483598571E-03      0.6417049656E-03

    ------------------------------------------------
       NWT REQUIRED            4 OUTER ITERATIONS 
       AND A TOTAL OF          6 INNER ITERATIONS.
    ------------------------------------------------

 NO OUTPUT CONTROL FOR STRESS PERIOD   38   TIME STEP   23
 
 SOLVING FOR HEAD 
                                                   Max.-Head-Change                         Max.-Flux-Residual
  Residual-Control   Outer-Iter.   Inner-Iter.     Column Row Layer    Maximum-Head-Change  Column Row Layer    Maximum-Flux-Residual          L2-NORM 
          0                 1           2             4    7     1       0.1645703086E-01       4    7    1         0.8623424923E+00      0.2230084897E+01
          0                 2           2             4    7     1      -0.1599957536E-02       4    7    1        -0.8618767460E-01      0.2229319484E+00
          0                 3           1             4    7     1       0.1088690353E-03       4    7    1         0.6028574510E-02      0.1559775173E-01
          0                 4           1             4    7     1      -0.4326569824E-05       4    7    1        -0.2462586342E-03      0.6374615605E-03

    ------------------------------------------------
       NWT REQUIRED            4 OUTER ITERATIONS 
       AND A TOTAL OF          6 INNER ITERATIONS.
    ------------------------------------------------

 NO OUTPUT CONTROL FOR STRESS PERIOD   38   TIME STEP   24
 
 SOLVING FOR HEAD 
                                                   Max.-Head-Change                         Max.-Flux-Residual
  Residual-Control   Outer-Iter.   Inner-Iter.     Column Row Layer    Maximum-Head-Change  Column Row Layer    Maximum-Flux-Residual          L2-NORM 
          0                 1           2             4    7     1       0.1631905252E-01       4    7    1         0.8550764241E+00      0.2215369582E+01
          0                 2           2             4    7     1      -0.1586543160E-02       4    7    1        -0.8546145406E-01      0.2214610996E+00
          0                 3           1             4    7     1       0.1079562536E-03       4    7    1         0.5977777364E-02      0.1549488583E-01
          0                 4           1             4    7     1      -0.4290294729E-05       4    7    1        -0.2441836261E-03      0.6332458104E-03

    ------------------------------------------------
       NWT REQUIRED            4 OUTER ITERATIONS 
       AND A TOTAL OF          6 INNER ITERATIONS.
    ------------------------------------------------

 NO OUTPUT CONTROL FOR STRESS PERIOD   38   TIME STEP   25
 
 SOLVING FOR HEAD 
                                                   Max.-Head-Change                         Max.-Flux-Residual
  Residual-Control   Outer-Iter.   Inner-Iter.     Column Row Layer    Maximum-Head-Change  Column Row Layer    Maximum-Flux-Residual          L2-NORM 
          0                 1           2             4    7     1       0.1618290675E-01       4    7    1         0.8479077912E+00      0.2200813682E+01
          0                 2           2             4    7     1      -0.1573306950E-02       4    7    1        -0.8474497201E-01      0.2200061875E+00
          0                 3           1             4    7     1       0.1070555955E-03       4    7    1         0.5927661408E-02      0.1539309836E-01
          0                 4           1             4    7     1      -0.4254501789E-05       4    7    1        -0.2421364504E-03      0.6290713847E-03

    ------------------------------------------------
       NWT REQUIRED            4 OUTER ITERATIONS 
       AND A TOTAL OF          6 INNER ITERATIONS.
    ------------------------------------------------

 NO OUTPUT CONTROL FOR STRESS PERIOD   38   TIME STEP   26
 
 SOLVING FOR HEAD 
                                                   Max.-Head-Change                         Max.-Flux-Residual
  Residual-Control   Outer-Iter.   Inner-Iter.     Column Row Layer    Maximum-Head-Change  Column Row Layer    Maximum-Flux-Residual          L2-NORM 
          0                 1           2             4    7     1       0.1604855738E-01       4    7    1         0.8408341741E+00      0.2186445771E+01
          0                 2           2             4    7     1      -0.1560245389E-02       4    7    1        -0.8403798660E-01      0.2185700776E+00
          0                 3           1             4    7     1       0.1061668211E-03       4    7    1         0.5878209714E-02      0.1529265058E-01
          0                 4           1             4    7     1      -0.4219180756E-05       4    7    1        -0.2401164047E-03      0.6249694881E-03

    ------------------------------------------------
       NWT REQUIRED            4 OUTER ITERATIONS 
       AND A TOTAL OF          6 INNER ITERATIONS.
    ------------------------------------------------

 NO OUTPUT CONTROL FOR STRESS PERIOD   38   TIME STEP   27
 
 SOLVING FOR HEAD 
                                                   Max.-Head-Change                         Max.-Flux-Residual
  Residual-Control   Outer-Iter.   Inner-Iter.     Column Row Layer    Maximum-Head-Change  Column Row Layer    Maximum-Flux-Residual          L2-NORM 
          0                 1           2             4    7     1       0.1591596568E-01       4    7    1         0.8338536974E+00      0.2172242900E+01
          0                 2           2             4    7     1      -0.1547354711E-02       4    7    1        -0.8334031038E-01      0.2171504635E+00
          0                 3           1             4    7     1       0.1052896747E-03       4    7    1         0.5829409173E-02      0.1519335348E-01
          0                 4           1             4    7     1      -0.4184322076E-05       4    7    1        -0.2381229713E-03      0.6209266157E-03

    ------------------------------------------------
       NWT REQUIRED            4 OUTER ITERATIONS 
       AND A TOTAL OF          6 INNER ITERATIONS.
    ------------------------------------------------

 NO OUTPUT CONTROL FOR STRESS PERIOD   38   TIME STEP   28
 
 SOLVING FOR HEAD 
                                                   Max.-Head-Change                         Max.-Flux-Residual
  Residual-Control   Outer-Iter.   Inner-Iter.     Column Row Layer    Maximum-Head-Change  Column Row Layer    Maximum-Flux-Residual          L2-NORM 
          0                 1           2             4    7     1       0.1578509152E-01       4    7    1         0.8269643526E+00      0.2158205336E+01
          0                 2           2             4    7     1      -0.1534631016E-02       4    7    1        -0.8265174261E-01      0.2157473520E+00
          0                 3           1             4    7     1       0.1044238907E-03       4    7    1         0.5781245762E-02      0.1509518283E-01
          0                 4           1             4    7     1      -0.4149914811E-05       4    7    1        -0.2361555419E-03      0.6169052016E-03

    ------------------------------------------------
       NWT REQUIRED            4 OUTER ITERATIONS 
       AND A TOTAL OF          6 INNER ITERATIONS.
    ------------------------------------------------

 NO OUTPUT CONTROL FOR STRESS PERIOD   38   TIME STEP   29
 
 SOLVING FOR HEAD 
                                                   Max.-Head-Change                         Max.-Flux-Residual
  Residual-Control   Outer-Iter.   Inner-Iter.     Column Row Layer    Maximum-Head-Change  Column Row Layer    Maximum-Flux-Residual          L2-NORM 
          0                 1           2             4    7     1       0.1565590433E-01       4    7    1         0.8201640594E+00      0.2144338197E+01
          0                 2           2             4    7     1      -0.1522071332E-02       4    7    1        -0.8197207538E-01      0.2143612607E+00
          0                 3           1             4    7     1       0.1035692665E-03       4    7    1         0.5733704897E-02      0.1499822061E-01
          0                 4           1             4    7     1      -0.4115951018E-05       4    7    1        -0.2342135560E-03      0.6129501387E-03

    ------------------------------------------------
       NWT REQUIRED            4 OUTER ITERATIONS 
       AND A TOTAL OF          6 INNER ITERATIONS.
    ------------------------------------------------

 NO OUTPUT CONTROL FOR STRESS PERIOD   38   TIME STEP   30



 STREAM LISTING     PERIOD     38   STEP       30

 LAYER ROW COL. STREAM  RCH.  FLOW INTO     FLOW TO   FLOW OUT OF   OVRLND.     DIRECT     STREAM       STREAM     STREAM     STREAM   STREAMBED  STREAMBED
                SEG.NO.  NO.  STRM. RCH.    AQUIFER    STRM. RCH.    RUNOFF     PRECIP       ET          HEAD       DEPTH      WIDTH   CONDCTNC.   GRADIENT

   1    1    1     1     1    1.9000E+01  2.1427E-01   1.8786E+01  0.000E+00  0.000E+00  0.000E+00  1.09413E+03  1.082E+00  1.166E+01  5.249E-02  1.361E+00
   1    2    2     1     2    1.8786E+01  3.3054E-01   1.8455E+01  0.000E+00  0.000E+00  0.000E+00  1.08914E+03  1.077E+00  1.158E+01  8.107E-02  1.359E+00
   1    3    3     1     3    1.8455E+01  2.8064E-01   1.8175E+01  0.000E+00  0.000E+00  0.000E+00  1.08349E+03  1.072E+00  1.149E+01  6.892E-02  1.357E+00
   1    3    4     1     4    1.8175E+01  2.5740E-01   1.7917E+01  0.000E+00  0.000E+00  0.000E+00  1.07848E+03  1.068E+00  1.140E+01  6.328E-02  1.356E+00
   1    4    5     2     1    1.5917E+01  3.0542E-01   1.5612E+01  0.000E+00  0.000E+00  0.000E+00  1.07285E+03  9.157E-01  1.200E+01  7.800E-02  1.305E+00
   1    5    6     2     2    1.5612E+01  2.3438E-01   1.5377E+01  0.000E+00  0.000E+00  0.000E+00  1.06742E+03  9.063E-01  1.200E+01  6.000E-02  1.302E+00
   1    6    6     2     3    1.5377E+01  2.3388E-01   1.5143E+01  0.000E+00  0.000E+00  0.000E+00  1.06269E+03  8.980E-01  1.200E+01  6.000E-02  1.299E+00
   1    7    6     2     4    1.5143E+01  2.3338E-01   1.4910E+01  0.000E+00  0.000E+00  0.000E+00  1.05797E+03  8.897E-01  1.200E+01  6.000E-02  1.297E+00
   1    8    6     2     5    1.4910E+01  2.3289E-01   1.4677E+01  0.000E+00  0.000E+00  0.000E+00  1.05324E+03  8.814E-01  1.200E+01  6.000E-02  1.294E+00
   1    3    5     3     1    2.0000E+00  2.8252E-01   1.7175E+00  0.000E+00  0.000E+00  0.000E+00  1.07555E+03  1.909E+00  9.636E+00  7.227E-02  1.955E+00
   1    3    6     3     2    1.7175E+00  2.4905E-01   1.4684E+00  0.000E+00  0.000E+00  0.000E+00  1.07264E+03  1.727E+00  8.909E+00  6.682E-02  1.864E+00
   1    3    7     3     3    1.4684E+00  1.9718E-01   1.2712E+00  0.000E+00  0.000E+00  0.000E+00  1.06987E+03  1.555E+00  8.218E+00  5.547E-02  1.777E+00
   1    4    8     3     4    1.2712E+00  2.2567E-01   1.0456E+00  0.000E+00  0.000E+00  0.000E+00  1.06682E+03  1.364E+00  7.455E+00  6.709E-02  1.682E+00
   1    5    8     3     5    1.0456E+00  1.5790E-01   8.8768E-01  0.000E+00  0.000E+00  0.000E+00  1.06362E+03  1.164E+00  6.655E+00  4.991E-02  1.582E+00
   1    6    8     3     6    8.8768E-01  5.5980E-02   8.3170E-01  0.000E+00  0.000E+00  0.000E+00  1.06158E+03  1.036E+00  6.145E+00  1.844E-02  1.518E+00
   1    5   10     4     1    1.0000E+01  9.0919E-02   9.9091E+00  0.000E+00  0.000E+00  0.000E+00  1.07836E+03  6.368E-01  1.000E+01  2.500E-02  1.212E+00
   1    5    9     4     2    9.9091E+00  1.8158E-01   9.7275E+00  0.000E+00  0.000E+00  0.000E+00  1.07154E+03  6.315E-01  1.000E+01  5.000E-02  1.211E+00
   1    6    8     4     3    9.7275E+00  1.2689E-01   9.6006E+00  0.000E+00  0.000E+00  0.000E+00  1.06381E+03  6.256E-01  1.000E+01  3.500E-02  1.209E+00
   1    6    8     5     1    1.0432E+01  2.2686E-01   1.0205E+01  0.000E+00  0.000E+00  0.000E+00  1.05868E+03  6.790E-01  1.542E+01  6.166E-02  1.226E+00
   1    7    7     5     2    1.0205E+01  2.7894E-01   9.9265E+00  0.000E+00  0.000E+00  0.000E+00  1.05417E+03  6.732E-01  1.519E+01  7.594E-02  1.224E+00
   1    8    7     5     3    9.9265E+00  1.9221E-01   9.7343E+00  0.000E+00  0.000E+00  0.000E+00  1.04992E+03  6.676E-01  1.497E+01  5.241E-02  1.223E+00
   1    8    6     5     4    9.7343E+00  1.3577E-01   9.5985E+00  0.000E+00  0.000E+00  0.000E+00  1.04691E+03  6.637E-01  1.482E+01  3.706E-02  1.221E+00
   1    9    6     6     1    2.4276E+01  2.5176E-01   2.4024E+01  0.000E+00  0.000E+00  0.000E+00  1.04392E+03  1.196E+00  1.200E+01  6.000E-02  1.399E+00
   1   10    7     6     2    2.4024E+01  2.5131E-01   2.3773E+01  0.000E+00  0.000E+00  0.000E+00  1.03937E+03  1.188E+00  1.200E+01  6.000E-02  1.396E+00
   1   11    7     6     3    2.3773E+01  2.5086E-01   2.3522E+01  0.000E+00  0.000E+00  0.000E+00  1.03482E+03  1.181E+00  1.200E+01  6.000E-02  1.394E+00
   1   12    7     6     4    2.3522E+01  2.5041E-01   2.3271E+01  0.000E+00  0.000E+00  0.000E+00  1.03026E+03  1.173E+00  1.200E+01  6.000E-02  1.391E+00
   1   13    7     6     5    2.3271E+01  8.9830E-03   2.3262E+01  0.000E+00  0.000E+00  0.000E+00  1.02708E+03  1.170E+00  1.200E+01  2.400E-02  1.248E-01
   1   14    9     7     1    1.5000E+02  1.3614E+00   1.4864E+02  0.000E+00  0.000E+00  0.000E+00  1.03987E+03  2.288E+00  5.529E+01  5.593E-01  8.114E-01
   1   13    8     7     2    1.4864E+02  1.9407E+00   1.4670E+02  0.000E+00  0.000E+00  0.000E+00  1.03478E+03  2.279E+00  5.525E+01  6.148E-01  1.052E+00
   1   13    7     7     3    1.4670E+02  1.6664E+00   1.4503E+02  0.000E+00  0.000E+00  0.000E+00  1.02969E+03  2.269E+00  5.521E+01  5.584E-01  9.948E-01
   1   13    6     8     1    1.6829E+02  1.1085E+00   1.6719E+02  0.000E+00  0.000E+00  0.000E+00  1.02481E+03  2.937E+00  4.259E+01  4.340E-01  8.513E-01
   1   13    5     8     2    1.6719E+02  3.5418E-01   1.6683E+02  0.000E+00  0.000E+00  0.000E+00  1.01856E+03  2.933E+00  4.252E+01  4.333E-01  2.725E-01
   1   13    4     8     3    1.6683E+02 -1.8254E+00   1.6866E+02  0.000E+00  0.000E+00  0.000E+00  1.01231E+03  2.937E+00  4.259E+01  4.340E+00 -1.402E-01
   1   13    3     8     4    1.6866E+02 -3.3586E+00   1.7202E+02  0.000E+00  0.000E+00  0.000E+00  1.00608E+03  2.954E+00  4.284E+01  4.365E+00 -2.565E-01
   1   13    2     8     5    1.7202E+02 -2.5087E+00   1.7452E+02  0.000E+00  0.000E+00  0.000E+00  9.99848E+02  2.973E+00  4.311E+01  4.393E+00 -1.903E-01
   1   13    1     8     6    1.7452E+02 -1.9653E+00   1.7649E+02  0.000E+00  0.000E+00  0.000E+00  9.94863E+02  2.988E+00  4.332E+01  2.649E+00 -2.473E-01





UNSATURATED ZONE PACKAGE VOLUMETRIC BUDGET FOR  TIME STEP    30 STRESS PERIOD   38
  ------------------------------------------------------------------------------



     CUMULATIVE VOLUMES      L**3       RATES FOR THIS TIME STEP      L**3/T
     ------------------                 ------------------------

           IN:                                      IN:
           ---                                      ---
        INFILTRATION =  1387670172.3964          INFILTRATION =           0.8475

          OUT:                                     OUT:
          ----                                     ----
              UZF ET =  1273046795.4707                UZF ET =           0.7500
        UZF RECHARGE =   113779140.8407          UZF RECHARGE =           0.0002

            IN - OUT =      844236.0851              IN - OUT =       9.7298E-02

          STORAGE:                                 STORAGE:
          --------                                 --------
      STORAGE CHANGE =      844242.0330        STORAGE CHANGE =       9.7298E-02

 PERCENT DISCREPANCY IS DIFFERENCE BETWEEN IN-OUT MINUS CHANGE IN STORAGE
 DIVIDED BY THE AVERAGE OF IN AND OUT TIMES 100

 PERCENT DISCREPANCY =           0.00     PERCENT DISCREPANCY =           0.00






1
  VOLUMETRIC BUDGET FOR AGRICULTURAL FIELDS AT  END OF TIME STEP   30, STRESS PERIOD  38
  ------------------------------------------------------------------------------

     CUMULATIVE VOLUMES      L**3       RATES FOR THIS TIME STEP      L**3/T
     ------------------                 ------------------------

           IN:                                      IN:
           ---                                      ---
               AG WELLS  =  1305126528.0000                 AG WELLS  =           0.0000
      DIVERSION SEGMENTS =           0.0000        DIVERSION SEGMENTS =           0.0000
           GW IRRIGATION =           0.0000             GW IRRIGATION =           0.0000
           SW IRRIGATION =           0.0000             SW IRRIGATION =           0.0000
        SYSTEM LOSSES GW =           0.0000          SYSTEM LOSSES GW =           0.0000
        SYSTEM LOSSES SW =           0.0000          SYSTEM LOSSES SW =           0.0000

                TOTAL IN =  1305126528.0000                  TOTAL IN =           0.0000

          OUT:                                     OUT:
          ----                                     ----
               AG WELLS  =           0.0000                 AG WELLS  =           0.0000
      DIVERSION SEGMENTS =           0.0000        DIVERSION SEGMENTS =           0.0000
           GW IRRIGATION =  1305126528.0000             GW IRRIGATION =           0.0000
           SW IRRIGATION =           0.0000             SW IRRIGATION =           0.0000
        SYSTEM LOSSES GW =           0.0000          SYSTEM LOSSES GW =           0.0000
        SYSTEM LOSSES SW =           0.0000          SYSTEM LOSSES SW =           0.0000

               TOTAL OUT =  1305126528.0000                 TOTAL OUT =           0.0000

                IN - OUT =           0.0000                  IN - OUT =           0.0000

     PERCENT DISCREPANCY =           0.00         PERCENT DISCREPANCY =           0.00



1
  VOLUMETRIC BUDGET FOR ENTIRE MODEL AT END OF TIME STEP   30, STRESS PERIOD  38
  ------------------------------------------------------------------------------

     CUMULATIVE VOLUMES      L**3       RATES FOR THIS TIME STEP      L**3/T
     ------------------                 ------------------------

           IN:                                      IN:
           ---                                      ---
             STORAGE     =  1745729408.0000               STORAGE     =           5.7051
       CONSTANT HEAD     =           0.0000         CONSTANT HEAD     =           0.0000
     HEAD DEP BOUNDS     =    27844662.0000       HEAD DEP BOUNDS     =           0.2875
      STREAM LEAKAGE     =  1192791040.0000        STREAM LEAKAGE     =          12.1687
        UZF RECHARGE     =   113779176.0000          UZF RECHARGE     =       2.0243E-04
               GW ET     =           0.0000                 GW ET     =           0.0000
     SURFACE LEAKAGE     =           0.0000       SURFACE LEAKAGE     =           0.0000
           AG WELLS      =           0.0000             AG WELLS      =           0.0000

                TOTAL IN =  3080144384.0000                  TOTAL IN =          18.1615

          OUT:                                     OUT:
          ----                                     ----
             STORAGE     =   732107072.0000               STORAGE     =           8.2145
       CONSTANT HEAD     =           0.0000         CONSTANT HEAD     =           0.0000
     HEAD DEP BOUNDS     =    28473172.0000       HEAD DEP BOUNDS     =           0.2890
      STREAM LEAKAGE     =   996818432.0000        STREAM LEAKAGE     =           9.6580
        UZF RECHARGE     =           0.0000          UZF RECHARGE     =           0.0000
               GW ET     =    17607600.0000                 GW ET     =           0.0000
     SURFACE LEAKAGE     =           0.0000       SURFACE LEAKAGE     =           0.0000
           AG WELLS      =  1305126528.0000             AG WELLS      =           0.0000

               TOTAL OUT =  3080132608.0000                 TOTAL OUT =          18.1615

                IN - OUT =       11776.0000                  IN - OUT =       1.3351E-05

     PERCENT DISCREPANCY =           0.00         PERCENT DISCREPANCY =           0.00






         TIME SUMMARY AT END OF TIME STEP   30 IN STRESS PERIOD   38
                    SECONDS     MINUTES      HOURS       DAYS        YEARS
                    -----------------------------------------------------------
   TIME STEP LENGTH  87667.      1461.1      24.352      1.0147     2.77799E-03
 STRESS PERIOD TIME 2.63000E+06  43833.      730.56      30.440     8.33397E-02
         TOTAL TIME 9.73959E+07 1.62326E+06  27054.      1127.3      3.0863    
1
1
                            STRESS PERIOD NO.   39, LENGTH =   2630000.    
                            -----------------------------------------------

                              NUMBER OF TIME STEPS =    30

                               MULTIPLIER FOR DELT =     1.000

                            INITIAL TIME STEP SIZE =   87666.66    

 REUSING NON-PARAMETER GHB CELLS FROM LAST STRESS PERIOD

      2 GHB CELLS

 REUSING STREAM SEGMENT DATA FROM LAST STRESS PERIOD



            AREAL INFILTRATION RATE
 READING ON UNIT   19 WITH FORMAT: (FREE)              

            1           2           3           4           5           6           7           8           9          10
 ........................................................................................................................
   1   1.0000E-10  2.0000E-10   0.000       0.000       0.000       0.000       0.000       0.000       0.000       0.000    
   2   2.0000E-10  1.0000E-10  2.0000E-10   0.000       0.000      8.0000E-10  8.0000E-10  5.0000E-10   0.000       0.000    
   3    0.000      5.0000E-10  1.0000E-10  1.0000E-10  8.0000E-10  8.0000E-10  5.0000E-10  5.0000E-10   0.000       0.000    
   4   8.0000E-10  5.0000E-10  1.0000E-10  1.0000E-10  1.0000E-10  1.0000E-10  1.0000E-10  1.0000E-10  2.0000E-10   0.000    
   5   8.0000E-10  5.0000E-10  1.0000E-10  1.0000E-10  1.0000E-10  1.0000E-10  1.0000E-10  1.0000E-10  1.0000E-10  1.0000E-10
   6   8.0000E-10  5.0000E-10  5.0000E-10  2.0000E-10  2.0000E-10  1.0000E-10  1.0000E-10  1.0000E-10  1.0000E-10  5.0000E-10
   7   8.0000E-10  5.0000E-10  5.0000E-10  2.0000E-10  2.0000E-10  1.0000E-10  1.0000E-10  2.0000E-10  2.0000E-10   0.000    
   8    0.000      5.0000E-10  5.0000E-10  2.0000E-10  2.0000E-10  1.0000E-10  1.0000E-10  2.0000E-10  5.0000E-10   0.000    
   9    0.000      5.0000E-10  5.0000E-10  2.0000E-10  2.0000E-10  1.0000E-10  1.0000E-10  2.0000E-10  5.0000E-10   0.000    
  10    0.000      5.0000E-10  5.0000E-10  2.0000E-10  2.0000E-10  1.0000E-10  1.0000E-10  2.0000E-10  5.0000E-10  8.0000E-10
  11    0.000      1.0000E-10  1.0000E-10  1.0000E-10  1.0000E-10  1.0000E-10  1.0000E-10  2.0000E-10  5.0000E-10   0.000    
  12   1.0000E-10  1.0000E-10  1.0000E-10  1.0000E-10  1.0000E-10  1.0000E-10  1.0000E-10  1.0000E-10  2.0000E-10   0.000    
  13   1.0000E-10  1.0000E-10  2.0000E-10  2.0000E-10  2.0000E-10  2.0000E-10  2.0000E-10  1.0000E-10  1.0000E-10   0.000    
  14    0.000      2.0000E-10  5.0000E-10  5.0000E-10  5.0000E-10  5.0000E-10  5.0000E-10  2.0000E-10  1.0000E-10   0.000    
  15    0.000       0.000      8.0000E-10  8.0000E-10  8.0000E-10  8.0000E-10   0.000       0.000       0.000       0.000    

                  ET RATE =  5.000000E-10

 USING ET EXTINCTION DEPTH FROM PREVIOUS STRESS PERIOD. CURRENT PERIOD IS:      39

 USING EXTINCTION WATER CONTENT FROM PREVIOUS STRESS PERIOD. CURRENT PERIOD IS:      39

 USING AIR ENTRY PRESSURE FROM PREVIOUS STRESS PERIOD. CURRENT PERIOD IS:      39

 USING ROOT PRESSURE HEAD FROM PREVIOUS STRESS PERIOD. CURRENT PERIOD IS:      39

 USING ROOT ACTIVITY FROM PREVIOUS STRESS PERIOD. CURRENT PERIOD IS:      39

 PROCESSING AG STRESS PERIOD DATA

 READING AG STRESS PERIOD DATA

 READING IRRIGATION WELL

 END PROCESSING AG STRESS PERIOD DATA OPTIONS
 
 SOLVING FOR HEAD 
                                                   Max.-Head-Change                         Max.-Flux-Residual
  Residual-Control   Outer-Iter.   Inner-Iter.     Column Row Layer    Maximum-Head-Change  Column Row Layer    Maximum-Flux-Residual          L2-NORM 
          0                 1           2             4    7     1       0.1552836851E-01       4    7    1         0.8134512332E+00      0.2130631022E+01
          0                 2           2             4    7     1      -0.1509672196E-02       4    7    1        -0.8130115026E-01      0.2129911958E+00
          0                 3           1             4    7     1       0.1027255669E-03       4    7    1         0.5686775524E-02      0.1490237789E-01
          0                 4           1             4    7     1      -0.4082421140E-05       4    7    1        -0.2322965465E-03      0.6090376526E-03

    ------------------------------------------------
       NWT REQUIRED            4 OUTER ITERATIONS 
       AND A TOTAL OF          6 INNER ITERATIONS.
    ------------------------------------------------

 NO OUTPUT CONTROL FOR STRESS PERIOD   39   TIME STEP    1
 
 SOLVING FOR HEAD 
                                                   Max.-Head-Change                         Max.-Flux-Residual
  Residual-Control   Outer-Iter.   Inner-Iter.     Column Row Layer    Maximum-Head-Change  Column Row Layer    Maximum-Flux-Residual          L2-NORM 
          0                 1           2             4    7     1       0.1540258282E-01       4    7    1         0.8068313426E+00      0.2117089383E+01
          0                 2           2             4    7     1      -0.1497443211E-02       4    7    1        -0.8063951391E-01      0.2116376647E+00
          0                 3           1             4    7     1       0.1018934460E-03       4    7    1         0.5640495907E-02      0.1480770974E-01
          0                 4           1             4    7     1      -0.4049352118E-05       4    7    1        -0.2304060952E-03      0.6051561761E-03

    ------------------------------------------------
       NWT REQUIRED            4 OUTER ITERATIONS 
       AND A TOTAL OF          6 INNER ITERATIONS.
    ------------------------------------------------

 NO OUTPUT CONTROL FOR STRESS PERIOD   39   TIME STEP    2
 
 SOLVING FOR HEAD 
                                                   Max.-Head-Change                         Max.-Flux-Residual
  Residual-Control   Outer-Iter.   Inner-Iter.     Column Row Layer    Maximum-Head-Change  Column Row Layer    Maximum-Flux-Residual          L2-NORM 
          0                 1           2             4    7     1       0.1527823938E-01       4    7    1         0.8002875628E+00      0.2103695051E+01
          0                 2           2             4    7     1      -0.1485354442E-02       4    7    1        -0.7998548463E-01      0.2102988809E+00
          0                 3           1             4    7     1       0.1010708650E-03       4    7    1         0.5594748346E-02      0.1471405899E-01
          0                 4           1             4    7     1      -0.4016661521E-05       4    7    1        -0.2285373491E-03      0.6013482109E-03

    ------------------------------------------------
       NWT REQUIRED            4 OUTER ITERATIONS 
       AND A TOTAL OF          6 INNER ITERATIONS.
    ------------------------------------------------

 NO OUTPUT CONTROL FOR STRESS PERIOD   39   TIME STEP    3
 
 SOLVING FOR HEAD 
                                                   Max.-Head-Change                         Max.-Flux-Residual
  Residual-Control   Outer-Iter.   Inner-Iter.     Column Row Layer    Maximum-Head-Change  Column Row Layer    Maximum-Flux-Residual          L2-NORM 
          0                 1           2             4    7     1       0.1515558409E-01       4    7    1         0.7938331918E+00      0.2090466338E+01
          0                 2           2             4    7     1      -0.1473429799E-02       4    7    1        -0.7934039158E-01      0.2089765980E+00
          0                 3           1             4    7     1       0.1002594523E-03       4    7    1         0.5549625860E-02      0.1462154520E-01
          0                 4           1             4    7     1      -0.3984415086E-05       4    7    1        -0.2266941503E-03      0.5975652695E-03

    ------------------------------------------------
       NWT REQUIRED            4 OUTER ITERATIONS 
       AND A TOTAL OF          6 INNER ITERATIONS.
    ------------------------------------------------

 NO OUTPUT CONTROL FOR STRESS PERIOD   39   TIME STEP    4
 
 SOLVING FOR HEAD 
                                                   Max.-Head-Change                         Max.-Flux-Residual
  Residual-Control   Outer-Iter.   Inner-Iter.     Column Row Layer    Maximum-Head-Change  Column Row Layer    Maximum-Flux-Residual          L2-NORM 
          0                 1           2             4    7     1       0.1503431114E-01       4    7    1         0.7874517175E+00      0.2077379012E+01
          0                 2           2             4    7     1      -0.1461639549E-02       4    7    1        -0.7870258438E-01      0.2076684637E+00
          0                 3           1             4    7     1       0.9945718496E-04       4    7    1         0.5505013019E-02      0.1453002356E-01

    ------------------------------------------------
       NWT REQUIRED            3 OUTER ITERATIONS 
       AND A TOTAL OF          5 INNER ITERATIONS.
    ------------------------------------------------

 NO OUTPUT CONTROL FOR STRESS PERIOD   39   TIME STEP    5
 
 SOLVING FOR HEAD 
                                                   Max.-Head-Change                         Max.-Flux-Residual
  Residual-Control   Outer-Iter.   Inner-Iter.     Column Row Layer    Maximum-Head-Change  Column Row Layer    Maximum-Flux-Residual          L2-NORM 
          0                 1           2             4    7     1       0.1491462410E-01       4    7    1         0.7811542551E+00      0.2064448016E+01
          0                 2           2             4    7     1      -0.1450003484E-02       4    7    1        -0.7807317400E-01      0.2063759742E+00
          0                 3           1             4    7     1       0.9866540837E-04       4    7    1         0.5460987496E-02      0.1443961436E-01

    ------------------------------------------------
       NWT REQUIRED            3 OUTER ITERATIONS 
       AND A TOTAL OF          5 INNER ITERATIONS.
    ------------------------------------------------

 NO OUTPUT CONTROL FOR STRESS PERIOD   39   TIME STEP    6
 
 SOLVING FOR HEAD 
                                                   Max.-Head-Change                         Max.-Flux-Residual
  Residual-Control   Outer-Iter.   Inner-Iter.     Column Row Layer    Maximum-Head-Change  Column Row Layer    Maximum-Flux-Residual          L2-NORM 
          0                 1           2             4    7     1       0.1479653064E-01       4    7    1         0.7749413379E+00      0.2051665130E+01
          0                 2           2             4    7     1      -0.1438522349E-02       4    7    1        -0.7745221372E-01      0.2050982752E+00
          0                 3           1             4    7     1       0.9788417451E-04       4    7    1         0.5417553054E-02      0.1435024314E-01

    ------------------------------------------------
       NWT REQUIRED            3 OUTER ITERATIONS 
       AND A TOTAL OF          5 INNER ITERATIONS.
    ------------------------------------------------

 NO OUTPUT CONTROL FOR STRESS PERIOD   39   TIME STEP    7
 
 SOLVING FOR HEAD 
                                                   Max.-Head-Change                         Max.-Flux-Residual
  Residual-Control   Outer-Iter.   Inner-Iter.     Column Row Layer    Maximum-Head-Change  Column Row Layer    Maximum-Flux-Residual          L2-NORM 
          0                 1           2             4    7     1       0.1467972922E-01       4    7    1         0.7687964123E+00      0.2039025770E+01
          0                 2           2             4    7     1      -0.1427166828E-02       4    7    1        -0.7683804902E-01      0.2038349424E+00
          0                 3           1             4    7     1       0.9711148800E-04       4    7    1         0.5374593935E-02      0.1426188079E-01

    ------------------------------------------------
       NWT REQUIRED            3 OUTER ITERATIONS 
       AND A TOTAL OF          5 INNER ITERATIONS.
    ------------------------------------------------

 NO OUTPUT CONTROL FOR STRESS PERIOD   39   TIME STEP    8
 
 SOLVING FOR HEAD 
                                                   Max.-Head-Change                         Max.-Flux-Residual
  Residual-Control   Outer-Iter.   Inner-Iter.     Column Row Layer    Maximum-Head-Change  Column Row Layer    Maximum-Flux-Residual          L2-NORM 
          0                 1           2             4    7     1       0.1456446835E-01       4    7    1         0.7627331095E+00      0.2026529819E+01
          0                 2           2             4    7     1      -0.1415961082E-02       4    7    1        -0.7623204237E-01      0.2025859117E+00
          0                 3           1             4    7     1       0.9634899239E-04       4    7    1         0.5332205431E-02      0.1417450655E-01

    ------------------------------------------------
       NWT REQUIRED            3 OUTER ITERATIONS 
       AND A TOTAL OF          5 INNER ITERATIONS.
    ------------------------------------------------

 NO OUTPUT CONTROL FOR STRESS PERIOD   39   TIME STEP    9
 
 SOLVING FOR HEAD 
                                                   Max.-Head-Change                         Max.-Flux-Residual
  Residual-Control   Outer-Iter.   Inner-Iter.     Column Row Layer    Maximum-Head-Change  Column Row Layer    Maximum-Flux-Residual          L2-NORM 
          0                 1           2             4    7     1       0.1445058177E-01       4    7    1         0.7567423644E+00      0.2014174706E+01
          0                 2           2             4    7     1      -0.1404888946E-02       4    7    1        -0.7563328767E-01      0.2013509932E+00
          0                 3           1             4    7     1       0.9559558906E-04       4    7    1         0.5290324217E-02      0.1408810287E-01

    ------------------------------------------------
       NWT REQUIRED            3 OUTER ITERATIONS 
       AND A TOTAL OF          5 INNER ITERATIONS.
    ------------------------------------------------

 NO OUTPUT CONTROL FOR STRESS PERIOD   39   TIME STEP   10
 
 SOLVING FOR HEAD 
                                                   Max.-Head-Change                         Max.-Flux-Residual
  Residual-Control   Outer-Iter.   Inner-Iter.     Column Row Layer    Maximum-Head-Change  Column Row Layer    Maximum-Flux-Residual          L2-NORM 
          0                 1           2             4    7     1       0.1433804214E-01       4    7    1         0.7508228734E+00      0.2001957423E+01
          0                 2           2             4    7     1      -0.1393947762E-02       4    7    1        -0.7504165468E-01      0.2001298161E+00
          0                 3           1             4    7     1       0.9485109613E-04       4    7    1         0.5248941125E-02      0.1400267192E-01

    ------------------------------------------------
       NWT REQUIRED            3 OUTER ITERATIONS 
       AND A TOTAL OF          5 INNER ITERATIONS.
    ------------------------------------------------

 NO OUTPUT CONTROL FOR STRESS PERIOD   39   TIME STEP   11
 
 SOLVING FOR HEAD 
                                                   Max.-Head-Change                         Max.-Flux-Residual
  Residual-Control   Outer-Iter.   Inner-Iter.     Column Row Layer    Maximum-Head-Change  Column Row Layer    Maximum-Flux-Residual          L2-NORM 
          0                 1           2             4    7     1       0.1422696264E-01       4    7    1         0.7449805360E+00      0.1989882804E+01
          0                 2           2             4    7     1      -0.1383148534E-02       4    7    1        -0.7445773298E-01      0.1989229479E+00
          0                 3           1             4    7     1       0.9411626231E-04       4    7    1         0.5208097419E-02      0.1391826652E-01

    ------------------------------------------------
       NWT REQUIRED            3 OUTER ITERATIONS 
       AND A TOTAL OF          5 INNER ITERATIONS.
    ------------------------------------------------

 NO OUTPUT CONTROL FOR STRESS PERIOD   39   TIME STEP   12
 
 SOLVING FOR HEAD 
                                                   Max.-Head-Change                         Max.-Flux-Residual
  Residual-Control   Outer-Iter.   Inner-Iter.     Column Row Layer    Maximum-Head-Change  Column Row Layer    Maximum-Flux-Residual          L2-NORM 
          0                 1           2             4    7     1       0.1411717787E-01       4    7    1         0.7392065869E+00      0.1977940592E+01
          0                 2           2             4    7     1      -0.1372475182E-02       4    7    1        -0.7388064649E-01      0.1977292620E+00
          0                 3           1             4    7     1       0.9338999369E-04       4    7    1         0.5167731822E-02      0.1383475062E-01

    ------------------------------------------------
       NWT REQUIRED            3 OUTER ITERATIONS 
       AND A TOTAL OF          5 INNER ITERATIONS.
    ------------------------------------------------

 NO OUTPUT CONTROL FOR STRESS PERIOD   39   TIME STEP   13
 
 SOLVING FOR HEAD 
                                                   Max.-Head-Change                         Max.-Flux-Residual
  Residual-Control   Outer-Iter.   Inner-Iter.     Column Row Layer    Maximum-Head-Change  Column Row Layer    Maximum-Flux-Residual          L2-NORM 
          0                 1           2             4    7     1       0.1400866305E-01       4    7    1         0.7334997667E+00      0.1966132717E+01
          0                 2           2             4    7     1      -0.1361925296E-02       4    7    1        -0.7331026941E-01      0.1965490007E+00
          0                 3           1             4    7     1       0.9267212673E-04       4    7    1         0.5127835526E-02      0.1375216466E-01

    ------------------------------------------------
       NWT REQUIRED            3 OUTER ITERATIONS 
       AND A TOTAL OF          5 INNER ITERATIONS.
    ------------------------------------------------

 NO OUTPUT CONTROL FOR STRESS PERIOD   39   TIME STEP   14
 
 SOLVING FOR HEAD 
                                                   Max.-Head-Change                         Max.-Flux-Residual
  Residual-Control   Outer-Iter.   Inner-Iter.     Column Row Layer    Maximum-Head-Change  Column Row Layer    Maximum-Flux-Residual          L2-NORM 
          0                 1           2             4    7     1       0.1390153344E-01       4    7    1         0.7278661090E+00      0.1954454072E+01
          0                 2           2             4    7     1      -0.1351510083E-02       4    7    1        -0.7274720474E-01      0.1953816947E+00
          0                 3           1             4    7     1       0.9196342377E-04       4    7    1         0.5088450736E-02      0.1367051844E-01

    ------------------------------------------------
       NWT REQUIRED            3 OUTER ITERATIONS 
       AND A TOTAL OF          5 INNER ITERATIONS.
    ------------------------------------------------

 NO OUTPUT CONTROL FOR STRESS PERIOD   39   TIME STEP   15
 
 SOLVING FOR HEAD 
                                                   Max.-Head-Change                         Max.-Flux-Residual
  Residual-Control   Outer-Iter.   Inner-Iter.     Column Row Layer    Maximum-Head-Change  Column Row Layer    Maximum-Flux-Residual          L2-NORM 
          0                 1           2             4    7     1       0.1379562492E-01       4    7    1         0.7222969536E+00      0.1942906975E+01
          0                 2           2             4    7     1      -0.1341213585E-02       4    7    1        -0.7219058691E-01      0.1942274939E+00
          0                 3           1             4    7     1       0.9126279834E-04       4    7    1         0.5049516875E-02      0.1358977236E-01

    ------------------------------------------------
       NWT REQUIRED            3 OUTER ITERATIONS 
       AND A TOTAL OF          5 INNER ITERATIONS.
    ------------------------------------------------

 NO OUTPUT CONTROL FOR STRESS PERIOD   39   TIME STEP   16
 
 SOLVING FOR HEAD 
                                                   Max.-Head-Change                         Max.-Flux-Residual
  Residual-Control   Outer-Iter.   Inner-Iter.     Column Row Layer    Maximum-Head-Change  Column Row Layer    Maximum-Flux-Residual          L2-NORM 
          0                 1           2             4    7     1       0.1369091938E-01       4    7    1         0.7167911092E+00      0.1931484633E+01
          0                 2           2             4    7     1      -0.1331034042E-02       4    7    1        -0.7164029684E-01      0.1930857986E+00
          0                 3           1             4    7     1       0.9057013117E-04       4    7    1         0.5011025607E-02      0.1350988645E-01

    ------------------------------------------------
       NWT REQUIRED            3 OUTER ITERATIONS 
       AND A TOTAL OF          5 INNER ITERATIONS.
    ------------------------------------------------

 NO OUTPUT CONTROL FOR STRESS PERIOD   39   TIME STEP   17
 
 SOLVING FOR HEAD 
                                                   Max.-Head-Change                         Max.-Flux-Residual
  Residual-Control   Outer-Iter.   Inner-Iter.     Column Row Layer    Maximum-Head-Change  Column Row Layer    Maximum-Flux-Residual          L2-NORM 
          0                 1           2             4    7     1       0.1358752859E-01       4    7    1         0.7113549554E+00      0.1920191135E+01
          0                 2           2             4    7     1      -0.1320982321E-02       4    7    1        -0.7109697218E-01      0.1919569641E+00
          0                 3           1             4    7     1       0.8988616163E-04       4    7    1         0.4973021570E-02      0.1343093199E-01

    ------------------------------------------------
       NWT REQUIRED            3 OUTER ITERATIONS 
       AND A TOTAL OF          5 INNER ITERATIONS.
    ------------------------------------------------

 NO OUTPUT CONTROL FOR STRESS PERIOD   39   TIME STEP   18
 
 SOLVING FOR HEAD 
                                                   Max.-Head-Change                         Max.-Flux-Residual
  Residual-Control   Outer-Iter.   Inner-Iter.     Column Row Layer    Maximum-Head-Change  Column Row Layer    Maximum-Flux-Residual          L2-NORM 
          0                 1           2             4    7     1       0.1348542564E-01       4    7    1         0.7059869696E+00      0.1909020207E+01
          0                 2           2             4    7     1      -0.1311055806E-02       4    7    1        -0.7056046075E-01      0.1908403827E+00
          0                 3           1             4    7     1       0.8921071209E-04       4    7    1         0.4935494099E-02      0.1335281916E-01

    ------------------------------------------------
       NWT REQUIRED            3 OUTER ITERATIONS 
       AND A TOTAL OF          5 INNER ITERATIONS.
    ------------------------------------------------

 NO OUTPUT CONTROL FOR STRESS PERIOD   39   TIME STEP   19
 
 SOLVING FOR HEAD 
                                                   Max.-Head-Change                         Max.-Flux-Residual
  Residual-Control   Outer-Iter.   Inner-Iter.     Column Row Layer    Maximum-Head-Change  Column Row Layer    Maximum-Flux-Residual          L2-NORM 
          0                 1           2             4    7     1       0.1338445280E-01       4    7    1         0.7006784366E+00      0.1897969224E+01
          0                 2           2             4    7     1      -0.1301239161E-02       4    7    1        -0.7002989145E-01      0.1897358171E+00
          0                 3           1             4    7     1       0.8854273811E-04       4    7    1         0.4898382245E-02      0.1327564753E-01

    ------------------------------------------------
       NWT REQUIRED            3 OUTER ITERATIONS 
       AND A TOTAL OF          5 INNER ITERATIONS.
    ------------------------------------------------

 NO OUTPUT CONTROL FOR STRESS PERIOD   39   TIME STEP   20
 
 SOLVING FOR HEAD 
                                                   Max.-Head-Change                         Max.-Flux-Residual
  Residual-Control   Outer-Iter.   Inner-Iter.     Column Row Layer    Maximum-Head-Change  Column Row Layer    Maximum-Flux-Residual          L2-NORM 
          0                 1           2             4    7     1       0.1328459301E-01       4    7    1         0.6954284974E+00      0.1887039485E+01
          0                 2           2             4    7     1      -0.1291530728E-02       4    7    1        -0.6950517846E-01      0.1886433520E+00
          0                 3           1             4    7     1       0.8788212822E-04       4    7    1         0.4861680055E-02      0.1319914183E-01

    ------------------------------------------------
       NWT REQUIRED            3 OUTER ITERATIONS 
       AND A TOTAL OF          5 INNER ITERATIONS.
    ------------------------------------------------

 NO OUTPUT CONTROL FOR STRESS PERIOD   39   TIME STEP   21
 
 SOLVING FOR HEAD 
                                                   Max.-Head-Change                         Max.-Flux-Residual
  Residual-Control   Outer-Iter.   Inner-Iter.     Column Row Layer    Maximum-Head-Change  Column Row Layer    Maximum-Flux-Residual          L2-NORM 
          0                 1           2             4    7     1       0.1318595903E-01       4    7    1         0.6902435874E+00      0.1876225468E+01
          0                 2           2             4    7     1      -0.1281941470E-02       4    7    1        -0.6898696497E-01      0.1875624397E+00
          0                 3           1             4    7     1       0.8722962663E-04       4    7    1         0.4825432459E-02      0.1312352370E-01

    ------------------------------------------------
       NWT REQUIRED            3 OUTER ITERATIONS 
       AND A TOTAL OF          5 INNER ITERATIONS.
    ------------------------------------------------

 NO OUTPUT CONTROL FOR STRESS PERIOD   39   TIME STEP   22
 
 SOLVING FOR HEAD 
                                                   Max.-Head-Change                         Max.-Flux-Residual
  Residual-Control   Outer-Iter.   Inner-Iter.     Column Row Layer    Maximum-Head-Change  Column Row Layer    Maximum-Flux-Residual          L2-NORM 
          0                 1           2             4    7     1       0.1308852915E-01       4    7    1         0.6851222331E+00      0.1865532884E+01
          0                 2           2             4    7     1      -0.1272469276E-02       4    7    1        -0.6847510370E-01      0.1864936610E+00
          0                 3           1             4    7     1       0.8658509124E-04       4    7    1         0.4789629213E-02      0.1304875821E-01

    ------------------------------------------------
       NWT REQUIRED            3 OUTER ITERATIONS 
       AND A TOTAL OF          5 INNER ITERATIONS.
    ------------------------------------------------

 NO OUTPUT CONTROL FOR STRESS PERIOD   39   TIME STEP   23
 
 SOLVING FOR HEAD 
                                                   Max.-Head-Change                         Max.-Flux-Residual
  Residual-Control   Outer-Iter.   Inner-Iter.     Column Row Layer    Maximum-Head-Change  Column Row Layer    Maximum-Flux-Residual          L2-NORM 
          0                 1           2             4    7     1       0.1299214472E-01       4    7    1         0.6800559897E+00      0.1854953495E+01
          0                 2           2             4    7     1      -0.1263098722E-02       4    7    1        -0.6796875063E-01      0.1854361921E+00
          0                 3           1             4    7     1       0.8594747191E-04       4    7    1         0.4754211225E-02      0.1297476103E-01

    ------------------------------------------------
       NWT REQUIRED            3 OUTER ITERATIONS 
       AND A TOTAL OF          5 INNER ITERATIONS.
    ------------------------------------------------

 NO OUTPUT CONTROL FOR STRESS PERIOD   39   TIME STEP   24
 
 SOLVING FOR HEAD 
                                                   Max.-Head-Change                         Max.-Flux-Residual
  Residual-Control   Outer-Iter.   Inner-Iter.     Column Row Layer    Maximum-Head-Change  Column Row Layer    Maximum-Flux-Residual          L2-NORM 
          0                 1           2             4    7     1       0.1289679162E-01       4    7    1         0.6750439505E+00      0.1844485785E+01
          0                 2           2             4    7     1      -0.1253828436E-02       4    7    1        -0.6746781509E-01      0.1843899114E+00
          0                 3           1             4    7     1       0.8531667527E-04       4    7    1         0.4719172194E-02      0.1290158473E-01

    ------------------------------------------------
       NWT REQUIRED            3 OUTER ITERATIONS 
       AND A TOTAL OF          5 INNER ITERATIONS.
    ------------------------------------------------

 NO OUTPUT CONTROL FOR STRESS PERIOD   39   TIME STEP   25
 
 SOLVING FOR HEAD 
                                                   Max.-Head-Change                         Max.-Flux-Residual
  Residual-Control   Outer-Iter.   Inner-Iter.     Column Row Layer    Maximum-Head-Change  Column Row Layer    Maximum-Flux-Residual          L2-NORM 
          0                 1           2             4    7     1       0.1280258996E-01       4    7    1         0.6700927044E+00      0.1834134820E+01
          0                 2           2             4    7     1      -0.1244670093E-02       4    7    1        -0.6697295566E-01      0.1833552808E+00
          0                 3           1             4    7     1       0.8469349573E-04       4    7    1         0.4684558160E-02      0.1282918984E-01

    ------------------------------------------------
       NWT REQUIRED            3 OUTER ITERATIONS 
       AND A TOTAL OF          5 INNER ITERATIONS.
    ------------------------------------------------

 NO OUTPUT CONTROL FOR STRESS PERIOD   39   TIME STEP   26
 
 SOLVING FOR HEAD 
                                                   Max.-Head-Change                         Max.-Flux-Residual
  Residual-Control   Outer-Iter.   Inner-Iter.     Column Row Layer    Maximum-Head-Change  Column Row Layer    Maximum-Flux-Residual          L2-NORM 
          0                 1           2             4    7     1       0.1270951446E-01       4    7    1         0.6652011581E+00      0.1823887292E+01
          0                 2           2             4    7     1      -0.1235621237E-02       4    7    1        -0.6648406310E-01      0.1823310283E+00
          0                 3           1             4    7     1       0.8407776608E-04       4    7    1         0.4650361500E-02      0.1275755081E-01

    ------------------------------------------------
       NWT REQUIRED            3 OUTER ITERATIONS 
       AND A TOTAL OF          5 INNER ITERATIONS.
    ------------------------------------------------

 NO OUTPUT CONTROL FOR STRESS PERIOD   39   TIME STEP   27
 
 SOLVING FOR HEAD 
                                                   Max.-Head-Change                         Max.-Flux-Residual
  Residual-Control   Outer-Iter.   Inner-Iter.     Column Row Layer    Maximum-Head-Change  Column Row Layer    Maximum-Flux-Residual          L2-NORM 
          0                 1           2             4    7     1       0.1261741200E-01       4    7    1         0.6603606806E+00      0.1813755097E+01
          0                 2           2             4    7     1      -0.1226666981E-02       4    7    1        -0.6600027469E-01      0.1813183035E+00
          0                 3           1             4    7     1       0.8346847405E-04       4    7    1         0.4616521867E-02      0.1268674514E-01

    ------------------------------------------------
       NWT REQUIRED            3 OUTER ITERATIONS 
       AND A TOTAL OF          5 INNER ITERATIONS.
    ------------------------------------------------

 NO OUTPUT CONTROL FOR STRESS PERIOD   39   TIME STEP   28
 
 SOLVING FOR HEAD 
                                                   Max.-Head-Change                         Max.-Flux-Residual
  Residual-Control   Outer-Iter.   Inner-Iter.     Column Row Layer    Maximum-Head-Change  Column Row Layer    Maximum-Flux-Residual          L2-NORM 
          0                 1           2             4    7     1       0.1252640324E-01       4    7    1         0.6555779743E+00      0.1803729146E+01
          0                 2           2             4    7     1      -0.1217819056E-02       4    7    1        -0.6552226037E-01      0.1803161469E+00
          0                 3           1             4    7     1       0.8286641654E-04       4    7    1         0.4583086106E-02      0.1261663589E-01

    ------------------------------------------------
       NWT REQUIRED            3 OUTER ITERATIONS 
       AND A TOTAL OF          5 INNER ITERATIONS.
    ------------------------------------------------

 NO OUTPUT CONTROL FOR STRESS PERIOD   39   TIME STEP   29
 
 SOLVING FOR HEAD 
                                                   Max.-Head-Change                         Max.-Flux-Residual
  Residual-Control   Outer-Iter.   Inner-Iter.     Column Row Layer    Maximum-Head-Change  Column Row Layer    Maximum-Flux-Residual          L2-NORM 
          0                 1           2             4    7     1       0.1243646615E-01       4    7    1         0.6508519744E+00      0.1793806177E+01
          0                 2           2             4    7     1      -0.1209075321E-02       4    7    1        -0.6504991370E-01      0.1793243131E+00
          0                 3           1             4    7     1       0.8227144916E-04       4    7    1         0.4550046782E-02      0.1254723214E-01

    ------------------------------------------------
       NWT REQUIRED            3 OUTER ITERATIONS 
       AND A TOTAL OF          5 INNER ITERATIONS.
    ------------------------------------------------

 NO OUTPUT CONTROL FOR STRESS PERIOD   39   TIME STEP   30



 STREAM LISTING     PERIOD     39   STEP       30

 LAYER ROW COL. STREAM  RCH.  FLOW INTO     FLOW TO   FLOW OUT OF   OVRLND.     DIRECT     STREAM       STREAM     STREAM     STREAM   STREAMBED  STREAMBED
                SEG.NO.  NO.  STRM. RCH.    AQUIFER    STRM. RCH.    RUNOFF     PRECIP       ET          HEAD       DEPTH      WIDTH   CONDCTNC.   GRADIENT

   1    1    1     1     1    1.9000E+01  2.1427E-01   1.8786E+01  0.000E+00  0.000E+00  0.000E+00  1.09413E+03  1.082E+00  1.166E+01  5.249E-02  1.361E+00
   1    2    2     1     2    1.8786E+01  3.3054E-01   1.8455E+01  0.000E+00  0.000E+00  0.000E+00  1.08914E+03  1.077E+00  1.158E+01  8.107E-02  1.359E+00
   1    3    3     1     3    1.8455E+01  2.8064E-01   1.8175E+01  0.000E+00  0.000E+00  0.000E+00  1.08349E+03  1.072E+00  1.149E+01  6.892E-02  1.357E+00
   1    3    4     1     4    1.8175E+01  2.5740E-01   1.7917E+01  0.000E+00  0.000E+00  0.000E+00  1.07848E+03  1.068E+00  1.140E+01  6.328E-02  1.356E+00
   1    4    5     2     1    1.5917E+01  3.0542E-01   1.5612E+01  0.000E+00  0.000E+00  0.000E+00  1.07285E+03  9.157E-01  1.200E+01  7.800E-02  1.305E+00
   1    5    6     2     2    1.5612E+01  2.3438E-01   1.5377E+01  0.000E+00  0.000E+00  0.000E+00  1.06742E+03  9.063E-01  1.200E+01  6.000E-02  1.302E+00
   1    6    6     2     3    1.5377E+01  2.3388E-01   1.5143E+01  0.000E+00  0.000E+00  0.000E+00  1.06269E+03  8.980E-01  1.200E+01  6.000E-02  1.299E+00
   1    7    6     2     4    1.5143E+01  2.3338E-01   1.4910E+01  0.000E+00  0.000E+00  0.000E+00  1.05797E+03  8.897E-01  1.200E+01  6.000E-02  1.297E+00
   1    8    6     2     5    1.4910E+01  2.3289E-01   1.4677E+01  0.000E+00  0.000E+00  0.000E+00  1.05324E+03  8.814E-01  1.200E+01  6.000E-02  1.294E+00
   1    3    5     3     1    2.0000E+00  2.8252E-01   1.7175E+00  0.000E+00  0.000E+00  0.000E+00  1.07555E+03  1.909E+00  9.636E+00  7.227E-02  1.955E+00
   1    3    6     3     2    1.7175E+00  2.4905E-01   1.4684E+00  0.000E+00  0.000E+00  0.000E+00  1.07264E+03  1.727E+00  8.909E+00  6.682E-02  1.864E+00
   1    3    7     3     3    1.4684E+00  1.9718E-01   1.2712E+00  0.000E+00  0.000E+00  0.000E+00  1.06987E+03  1.555E+00  8.218E+00  5.547E-02  1.777E+00
   1    4    8     3     4    1.2712E+00  2.2567E-01   1.0456E+00  0.000E+00  0.000E+00  0.000E+00  1.06682E+03  1.364E+00  7.455E+00  6.709E-02  1.682E+00
   1    5    8     3     5    1.0456E+00  1.5790E-01   8.8768E-01  0.000E+00  0.000E+00  0.000E+00  1.06362E+03  1.164E+00  6.655E+00  4.991E-02  1.582E+00
   1    6    8     3     6    8.8768E-01  5.5980E-02   8.3170E-01  0.000E+00  0.000E+00  0.000E+00  1.06158E+03  1.036E+00  6.145E+00  1.844E-02  1.518E+00
   1    5   10     4     1    1.0000E+01  9.0919E-02   9.9091E+00  0.000E+00  0.000E+00  0.000E+00  1.07836E+03  6.368E-01  1.000E+01  2.500E-02  1.212E+00
   1    5    9     4     2    9.9091E+00  1.8158E-01   9.7275E+00  0.000E+00  0.000E+00  0.000E+00  1.07154E+03  6.315E-01  1.000E+01  5.000E-02  1.211E+00
   1    6    8     4     3    9.7275E+00  1.2689E-01   9.6006E+00  0.000E+00  0.000E+00  0.000E+00  1.06381E+03  6.256E-01  1.000E+01  3.500E-02  1.209E+00
   1    6    8     5     1    1.0432E+01  2.2686E-01   1.0205E+01  0.000E+00  0.000E+00  0.000E+00  1.05868E+03  6.790E-01  1.542E+01  6.166E-02  1.226E+00
   1    7    7     5     2    1.0205E+01  2.7894E-01   9.9265E+00  0.000E+00  0.000E+00  0.000E+00  1.05417E+03  6.732E-01  1.519E+01  7.594E-02  1.224E+00
   1    8    7     5     3    9.9265E+00  1.9221E-01   9.7343E+00  0.000E+00  0.000E+00  0.000E+00  1.04992E+03  6.676E-01  1.497E+01  5.241E-02  1.223E+00
   1    8    6     5     4    9.7343E+00  1.3577E-01   9.5985E+00  0.000E+00  0.000E+00  0.000E+00  1.04691E+03  6.637E-01  1.482E+01  3.706E-02  1.221E+00
   1    9    6     6     1    2.4276E+01  2.5176E-01   2.4024E+01  0.000E+00  0.000E+00  0.000E+00  1.04392E+03  1.196E+00  1.200E+01  6.000E-02  1.399E+00
   1   10    7     6     2    2.4024E+01  2.5131E-01   2.3773E+01  0.000E+00  0.000E+00  0.000E+00  1.03937E+03  1.188E+00  1.200E+01  6.000E-02  1.396E+00
   1   11    7     6     3    2.3773E+01  2.5086E-01   2.3522E+01  0.000E+00  0.000E+00  0.000E+00  1.03482E+03  1.181E+00  1.200E+01  6.000E-02  1.394E+00
   1   12    7     6     4    2.3522E+01  2.5041E-01   2.3271E+01  0.000E+00  0.000E+00  0.000E+00  1.03026E+03  1.173E+00  1.200E+01  6.000E-02  1.391E+00
   1   13    7     6     5    2.3271E+01  9.5308E-03   2.3262E+01  0.000E+00  0.000E+00  0.000E+00  1.02708E+03  1.170E+00  1.200E+01  2.400E-02  1.324E-01
   1   14    9     7     1    1.5000E+02  1.3633E+00   1.4864E+02  0.000E+00  0.000E+00  0.000E+00  1.03987E+03  2.288E+00  5.529E+01  5.593E-01  8.125E-01
   1   13    8     7     2    1.4864E+02  1.9475E+00   1.4669E+02  0.000E+00  0.000E+00  0.000E+00  1.03478E+03  2.279E+00  5.525E+01  6.148E-01  1.056E+00
   1   13    7     7     3    1.4669E+02  1.6791E+00   1.4501E+02  0.000E+00  0.000E+00  0.000E+00  1.02969E+03  2.269E+00  5.521E+01  5.584E-01  1.002E+00
   1   13    6     8     1    1.6827E+02  1.1200E+00   1.6715E+02  0.000E+00  0.000E+00  0.000E+00  1.02481E+03  2.937E+00  4.259E+01  4.340E-01  8.602E-01
   1   13    5     8     2    1.6715E+02  3.6355E-01   1.6679E+02  0.000E+00  0.000E+00  0.000E+00  1.01856E+03  2.932E+00  4.252E+01  4.333E-01  2.797E-01
   1   13    4     8     3    1.6679E+02 -1.7974E+00   1.6859E+02  0.000E+00  0.000E+00  0.000E+00  1.01231E+03  2.937E+00  4.259E+01  4.340E+00 -1.381E-01
   1   13    3     8     4    1.6859E+02 -3.3421E+00   1.7193E+02  0.000E+00  0.000E+00  0.000E+00  1.00608E+03  2.954E+00  4.283E+01  4.365E+00 -2.552E-01
   1   13    2     8     5    1.7193E+02 -2.5043E+00   1.7443E+02  0.000E+00  0.000E+00  0.000E+00  9.99848E+02  2.973E+00  4.311E+01  4.393E+00 -1.900E-01
   1   13    1     8     6    1.7443E+02 -1.9642E+00   1.7640E+02  0.000E+00  0.000E+00  0.000E+00  9.94862E+02  2.987E+00  4.331E+01  2.648E+00 -2.472E-01





UNSATURATED ZONE PACKAGE VOLUMETRIC BUDGET FOR  TIME STEP    30 STRESS PERIOD   39
  ------------------------------------------------------------------------------



     CUMULATIVE VOLUMES      L**3       RATES FOR THIS TIME STEP      L**3/T
     ------------------                 ------------------------

           IN:                                      IN:
           ---                                      ---
        INFILTRATION =  1389899097.2692          INFILTRATION =           0.8475

          OUT:                                     OUT:
          ----                                     ----
              UZF ET =  1275019295.3576                UZF ET =           0.7500
        UZF RECHARGE =   113779617.0811          UZF RECHARGE =           0.0002

            IN - OUT =     1100184.8305              IN - OUT =       9.7337E-02

          STORAGE:                                 STORAGE:
          --------                                 --------
      STORAGE CHANGE =     1100190.7994        STORAGE CHANGE =       9.7337E-02

 PERCENT DISCREPANCY IS DIFFERENCE BETWEEN IN-OUT MINUS CHANGE IN STORAGE
 DIVIDED BY THE AVERAGE OF IN AND OUT TIMES 100

 PERCENT DISCREPANCY =           0.00     PERCENT DISCREPANCY =           0.00






1
  VOLUMETRIC BUDGET FOR AGRICULTURAL FIELDS AT  END OF TIME STEP   30, STRESS PERIOD  39
  ------------------------------------------------------------------------------

     CUMULATIVE VOLUMES      L**3       RATES FOR THIS TIME STEP      L**3/T
     ------------------                 ------------------------

           IN:                                      IN:
           ---                                      ---
               AG WELLS  =  1305126528.0000                 AG WELLS  =           0.0000
      DIVERSION SEGMENTS =           0.0000        DIVERSION SEGMENTS =           0.0000
           GW IRRIGATION =           0.0000             GW IRRIGATION =           0.0000
           SW IRRIGATION =           0.0000             SW IRRIGATION =           0.0000
        SYSTEM LOSSES GW =           0.0000          SYSTEM LOSSES GW =           0.0000
        SYSTEM LOSSES SW =           0.0000          SYSTEM LOSSES SW =           0.0000

                TOTAL IN =  1305126528.0000                  TOTAL IN =           0.0000

          OUT:                                     OUT:
          ----                                     ----
               AG WELLS  =           0.0000                 AG WELLS  =           0.0000
      DIVERSION SEGMENTS =           0.0000        DIVERSION SEGMENTS =           0.0000
           GW IRRIGATION =  1305126528.0000             GW IRRIGATION =           0.0000
           SW IRRIGATION =           0.0000             SW IRRIGATION =           0.0000
        SYSTEM LOSSES GW =           0.0000          SYSTEM LOSSES GW =           0.0000
        SYSTEM LOSSES SW =           0.0000          SYSTEM LOSSES SW =           0.0000

               TOTAL OUT =  1305126528.0000                 TOTAL OUT =           0.0000

                IN - OUT =           0.0000                  IN - OUT =           0.0000

     PERCENT DISCREPANCY =           0.00         PERCENT DISCREPANCY =           0.00



1
  VOLUMETRIC BUDGET FOR ENTIRE MODEL AT END OF TIME STEP   30, STRESS PERIOD  39
  ------------------------------------------------------------------------------

     CUMULATIVE VOLUMES      L**3       RATES FOR THIS TIME STEP      L**3/T
     ------------------                 ------------------------

           IN:                                      IN:
           ---                                      ---
             STORAGE     =  1759350144.0000               STORAGE     =           4.7233
       CONSTANT HEAD     =           0.0000         CONSTANT HEAD     =           0.0000
     HEAD DEP BOUNDS     =    28600966.0000       HEAD DEP BOUNDS     =           0.2876
      STREAM LEAKAGE     =  1224853120.0000        STREAM LEAKAGE     =          12.2116
        UZF RECHARGE     =   113779656.0000          UZF RECHARGE     =       1.6321E-04
               GW ET     =           0.0000                 GW ET     =           0.0000
     SURFACE LEAKAGE     =           0.0000       SURFACE LEAKAGE     =           0.0000
           AG WELLS      =           0.0000             AG WELLS      =           0.0000

                TOTAL IN =  3126583808.0000                  TOTAL IN =          17.2227

          OUT:                                     OUT:
          ----                                     ----
             STORAGE     =   752459328.0000               STORAGE     =           7.3265
       CONSTANT HEAD     =           0.0000         CONSTANT HEAD     =           0.0000
     HEAD DEP BOUNDS     =    29233138.0000       HEAD DEP BOUNDS     =           0.2889
      STREAM LEAKAGE     =  1022148288.0000        STREAM LEAKAGE     =           9.6080
        UZF RECHARGE     =           0.0000          UZF RECHARGE     =           0.0000
               GW ET     =    17607600.0000                 GW ET     =           0.0000
     SURFACE LEAKAGE     =           0.0000       SURFACE LEAKAGE     =           0.0000
           AG WELLS      =  1305126528.0000             AG WELLS      =           0.0000

               TOTAL OUT =  3126574848.0000                 TOTAL OUT =          17.2234

                IN - OUT =        8960.0000                  IN - OUT =      -7.3814E-04

     PERCENT DISCREPANCY =           0.00         PERCENT DISCREPANCY =          -0.00






         TIME SUMMARY AT END OF TIME STEP   30 IN STRESS PERIOD   39
                    SECONDS     MINUTES      HOURS       DAYS        YEARS
                    -----------------------------------------------------------
   TIME STEP LENGTH  87667.      1461.1      24.352      1.0147     2.77799E-03
 STRESS PERIOD TIME 2.63000E+06  43833.      730.56      30.440     8.33397E-02
         TOTAL TIME 1.00026E+08 1.66710E+06  27785.      1157.7      3.1696    
1
1
                            STRESS PERIOD NO.   40, LENGTH =   2630000.    
                            -----------------------------------------------

                              NUMBER OF TIME STEPS =    30

                               MULTIPLIER FOR DELT =     1.000

                            INITIAL TIME STEP SIZE =   87666.66    

 REUSING NON-PARAMETER GHB CELLS FROM LAST STRESS PERIOD

      2 GHB CELLS

 REUSING STREAM SEGMENT DATA FROM LAST STRESS PERIOD



            AREAL INFILTRATION RATE
 READING ON UNIT   19 WITH FORMAT: (FREE)              

            1           2           3           4           5           6           7           8           9          10
 ........................................................................................................................
   1   1.0000E-10  2.0000E-10   0.000       0.000       0.000       0.000       0.000       0.000       0.000       0.000    
   2   2.0000E-10  1.0000E-10  2.0000E-10   0.000       0.000      8.0000E-10  8.0000E-10  5.0000E-10   0.000       0.000    
   3    0.000      5.0000E-10  1.0000E-10  1.0000E-10  8.0000E-10  8.0000E-10  5.0000E-10  5.0000E-10   0.000       0.000    
   4   8.0000E-10  5.0000E-10  1.0000E-10  1.0000E-10  1.0000E-10  1.0000E-10  1.0000E-10  1.0000E-10  2.0000E-10   0.000    
   5   8.0000E-10  5.0000E-10  1.0000E-10  1.0000E-10  1.0000E-10  1.0000E-10  1.0000E-10  1.0000E-10  1.0000E-10  1.0000E-10
   6   8.0000E-10  5.0000E-10  5.0000E-10  2.0000E-10  2.0000E-10  1.0000E-10  1.0000E-10  1.0000E-10  1.0000E-10  5.0000E-10
   7   8.0000E-10  5.0000E-10  5.0000E-10  2.0000E-10  2.0000E-10  1.0000E-10  1.0000E-10  2.0000E-10  2.0000E-10   0.000    
   8    0.000      5.0000E-10  5.0000E-10  2.0000E-10  2.0000E-10  1.0000E-10  1.0000E-10  2.0000E-10  5.0000E-10   0.000    
   9    0.000      5.0000E-10  5.0000E-10  2.0000E-10  2.0000E-10  1.0000E-10  1.0000E-10  2.0000E-10  5.0000E-10   0.000    
  10    0.000      5.0000E-10  5.0000E-10  2.0000E-10  2.0000E-10  1.0000E-10  1.0000E-10  2.0000E-10  5.0000E-10  8.0000E-10
  11    0.000      1.0000E-10  1.0000E-10  1.0000E-10  1.0000E-10  1.0000E-10  1.0000E-10  2.0000E-10  5.0000E-10   0.000    
  12   1.0000E-10  1.0000E-10  1.0000E-10  1.0000E-10  1.0000E-10  1.0000E-10  1.0000E-10  1.0000E-10  2.0000E-10   0.000    
  13   1.0000E-10  1.0000E-10  2.0000E-10  2.0000E-10  2.0000E-10  2.0000E-10  2.0000E-10  1.0000E-10  1.0000E-10   0.000    
  14    0.000      2.0000E-10  5.0000E-10  5.0000E-10  5.0000E-10  5.0000E-10  5.0000E-10  2.0000E-10  1.0000E-10   0.000    
  15    0.000       0.000      8.0000E-10  8.0000E-10  8.0000E-10  8.0000E-10   0.000       0.000       0.000       0.000    

                  ET RATE =  5.000000E-10

 USING ET EXTINCTION DEPTH FROM PREVIOUS STRESS PERIOD. CURRENT PERIOD IS:      40

 USING EXTINCTION WATER CONTENT FROM PREVIOUS STRESS PERIOD. CURRENT PERIOD IS:      40

 USING AIR ENTRY PRESSURE FROM PREVIOUS STRESS PERIOD. CURRENT PERIOD IS:      40

 USING ROOT PRESSURE HEAD FROM PREVIOUS STRESS PERIOD. CURRENT PERIOD IS:      40

 USING ROOT ACTIVITY FROM PREVIOUS STRESS PERIOD. CURRENT PERIOD IS:      40

 PROCESSING AG STRESS PERIOD DATA

 READING AG STRESS PERIOD DATA

 READING IRRIGATION WELL

 END PROCESSING AG STRESS PERIOD DATA OPTIONS
 
 SOLVING FOR HEAD 
                                                   Max.-Head-Change                         Max.-Flux-Residual
  Residual-Control   Outer-Iter.   Inner-Iter.     Column Row Layer    Maximum-Head-Change  Column Row Layer    Maximum-Flux-Residual          L2-NORM 
          0                 1           2             4    7     1       0.1234744793E-01       4    7    1         0.6461742173E+00      0.1783985022E+01
          0                 2           2             4    7     1      -0.1200420918E-02       4    7    1        -0.6458238874E-01      0.1783427734E+00
          0                 3           1             4    7     1       0.8168256003E-04       4    7    1         0.4517344713E-02      0.1247855394E-01

    ------------------------------------------------
       NWT REQUIRED            3 OUTER ITERATIONS 
       AND A TOTAL OF          5 INNER ITERATIONS.
    ------------------------------------------------

 NO OUTPUT CONTROL FOR STRESS PERIOD   40   TIME STEP    1
 
 SOLVING FOR HEAD 
                                                   Max.-Head-Change                         Max.-Flux-Residual
  Residual-Control   Outer-Iter.   Inner-Iter.     Column Row Layer    Maximum-Head-Change  Column Row Layer    Maximum-Flux-Residual          L2-NORM 
          0                 1           2             4    7     1       0.1225947006E-01       4    7    1         0.6415514236E+00      0.1774271968E+01
          0                 2           2             4    7     1      -0.1191867660E-02       4    7    1        -0.6412035724E-01      0.1773717742E+00
          0                 3           1             4    7     1       0.8110055371E-04       4    7    1         0.4485026921E-02      0.1241063226E-01

    ------------------------------------------------
       NWT REQUIRED            3 OUTER ITERATIONS 
       AND A TOTAL OF          5 INNER ITERATIONS.
    ------------------------------------------------

 NO OUTPUT CONTROL FOR STRESS PERIOD   40   TIME STEP    2
 
 SOLVING FOR HEAD 
                                                   Max.-Head-Change                         Max.-Flux-Residual
  Residual-Control   Outer-Iter.   Inner-Iter.     Column Row Layer    Maximum-Head-Change  Column Row Layer    Maximum-Flux-Residual          L2-NORM 
          0                 1           2             4    7     1       0.1217251339E-01       4    7    1         0.6369825701E+00      0.1764658666E+01
          0                 2           2             4    7     1      -0.1183413684E-02       4    7    1        -0.6366371691E-01      0.1764108824E+00
          0                 3           1             4    7     1       0.8052530275E-04       4    7    1         0.4453086224E-02      0.1234341290E-01

    ------------------------------------------------
       NWT REQUIRED            3 OUTER ITERATIONS 
       AND A TOTAL OF          5 INNER ITERATIONS.
    ------------------------------------------------

 NO OUTPUT CONTROL FOR STRESS PERIOD   40   TIME STEP    3
 
 SOLVING FOR HEAD 
                                                   Max.-Head-Change                         Max.-Flux-Residual
  Residual-Control   Outer-Iter.   Inner-Iter.     Column Row Layer    Maximum-Head-Change  Column Row Layer    Maximum-Flux-Residual          L2-NORM 
          0                 1           2             4    7     1       0.1208642209E-01       4    7    1         0.6324593417E+00      0.1755141306E+01
          0                 2           2             4    7     1      -0.1175043840E-02       4    7    1        -0.6321163668E-01      0.1754595974E+00
          0                 3           1             4    7     1       0.7995577681E-04       4    7    1         0.4421464471E-02      0.1227687226E-01

    ------------------------------------------------
       NWT REQUIRED            3 OUTER ITERATIONS 
       AND A TOTAL OF          5 INNER ITERATIONS.
    ------------------------------------------------

 NO OUTPUT CONTROL FOR STRESS PERIOD   40   TIME STEP    4
 
 SOLVING FOR HEAD 
                                                   Max.-Head-Change                         Max.-Flux-Residual
  Residual-Control   Outer-Iter.   Inner-Iter.     Column Row Layer    Maximum-Head-Change  Column Row Layer    Maximum-Flux-Residual          L2-NORM 
          0                 1           2             4    7     1       0.1200132304E-01       4    7    1         0.6279883037E+00      0.1745725760E+01
          0                 2           2             4    7     1      -0.1166770463E-02       4    7    1        -0.6276477272E-01      0.1745184620E+00
          0                 3           1             4    7     1       0.7939281499E-04       4    7    1         0.4390207612E-02      0.1221102367E-01

    ------------------------------------------------
       NWT REQUIRED            3 OUTER ITERATIONS 
       AND A TOTAL OF          5 INNER ITERATIONS.
    ------------------------------------------------

 NO OUTPUT CONTROL FOR STRESS PERIOD   40   TIME STEP    5
 
 SOLVING FOR HEAD 
                                                   Max.-Head-Change                         Max.-Flux-Residual
  Residual-Control   Outer-Iter.   Inner-Iter.     Column Row Layer    Maximum-Head-Change  Column Row Layer    Maximum-Flux-Residual          L2-NORM 
          0                 1           2             4    7     1       0.1191719902E-01       4    7    1         0.6235687115E+00      0.1736411949E+01
          0                 2           2             4    7     1      -0.1158591880E-02       4    7    1        -0.6232305060E-01      0.1735875023E+00
          0                 3           1             4    7     1       0.7883630312E-04       4    7    1         0.4359310393E-02      0.1214589618E-01

    ------------------------------------------------
       NWT REQUIRED            3 OUTER ITERATIONS 
       AND A TOTAL OF          5 INNER ITERATIONS.
    ------------------------------------------------

 NO OUTPUT CONTROL FOR STRESS PERIOD   40   TIME STEP    6
 
 SOLVING FOR HEAD 
                                                   Max.-Head-Change                         Max.-Flux-Residual
  Residual-Control   Outer-Iter.   Inner-Iter.     Column Row Layer    Maximum-Head-Change  Column Row Layer    Maximum-Flux-Residual          L2-NORM 
          0                 1           2             4    7     1       0.1183402814E-01       4    7    1         0.6191996734E+00      0.1727187027E+01
          0                 2           2             4    7     1      -0.1150505962E-02       4    7    1        -0.6188638126E-01      0.1726654373E+00
          0                 3           1             4    7     1       0.7828609634E-04       4    7    1         0.4328766588E-02      0.1208140881E-01

    ------------------------------------------------
       NWT REQUIRED            3 OUTER ITERATIONS 
       AND A TOTAL OF          5 INNER ITERATIONS.
    ------------------------------------------------

 NO OUTPUT CONTROL FOR STRESS PERIOD   40   TIME STEP    7
 
 SOLVING FOR HEAD 
                                                   Max.-Head-Change                         Max.-Flux-Residual
  Residual-Control   Outer-Iter.   Inner-Iter.     Column Row Layer    Maximum-Head-Change  Column Row Layer    Maximum-Flux-Residual          L2-NORM 
          0                 1           2             4    7     1       0.1175166313E-01       4    7    1         0.6148727310E+00      0.1718059300E+01
          0                 2           2             4    7     1      -0.1142498392E-02       4    7    1        -0.6145391922E-01      0.1717530948E+00
          0                 3           1             4    7     1       0.7774122122E-04       4    7    1         0.4298517094E-02      0.1201758811E-01

    ------------------------------------------------
       NWT REQUIRED            3 OUTER ITERATIONS 
       AND A TOTAL OF          5 INNER ITERATIONS.
    ------------------------------------------------

 NO OUTPUT CONTROL FOR STRESS PERIOD   40   TIME STEP    8
 
 SOLVING FOR HEAD 
                                                   Max.-Head-Change                         Max.-Flux-Residual
  Residual-Control   Outer-Iter.   Inner-Iter.     Column Row Layer    Maximum-Head-Change  Column Row Layer    Maximum-Flux-Residual          L2-NORM 
          0                 1           2             4    7     1       0.1167022490E-01       4    7    1         0.6105948945E+00      0.1709018927E+01
          0                 2           2             4    7     1      -0.1134580925E-02       4    7    1        -0.6102636521E-01      0.1708494560E+00
          0                 3           1             4    7     1       0.7720247782E-04       4    7    1         0.4268610933E-02      0.1195436509E-01

    ------------------------------------------------
       NWT REQUIRED            3 OUTER ITERATIONS 
       AND A TOTAL OF          5 INNER ITERATIONS.
    ------------------------------------------------

 NO OUTPUT CONTROL FOR STRESS PERIOD   40   TIME STEP    9
 
 SOLVING FOR HEAD 
                                                   Max.-Head-Change                         Max.-Flux-Residual
  Residual-Control   Outer-Iter.   Inner-Iter.     Column Row Layer    Maximum-Head-Change  Column Row Layer    Maximum-Flux-Residual          L2-NORM 
          0                 1           2             4    7     1       0.1158970016E-01       4    7    1         0.6063651096E+00      0.1700075803E+01
          0                 2           2             4    7     1      -0.1126752267E-02       4    7    1        -0.6060361381E-01      0.1699555059E+00
          0                 3           1             4    7     1       0.7666977658E-04       4    7    1         0.4239040643E-02      0.1189180145E-01

    ------------------------------------------------
       NWT REQUIRED            3 OUTER ITERATIONS 
       AND A TOTAL OF          5 INNER ITERATIONS.
    ------------------------------------------------

 NO OUTPUT CONTROL FOR STRESS PERIOD   40   TIME STEP   10
 
 SOLVING FOR HEAD 
                                                   Max.-Head-Change                         Max.-Flux-Residual
  Residual-Control   Outer-Iter.   Inner-Iter.     Column Row Layer    Maximum-Head-Change  Column Row Layer    Maximum-Flux-Residual          L2-NORM 
          0                 1           2             4    7     1       0.1151007053E-01       4    7    1         0.6021826877E+00      0.1691223105E+01
          0                 2           2             4    7     1      -0.1119010633E-02       4    7    1        -0.6018559618E-01      0.1690706991E+00
          0                 3           1             4    7     1       0.7614299667E-04       4    7    1         0.4209801484E-02      0.1182992953E-01

    ------------------------------------------------
       NWT REQUIRED            3 OUTER ITERATIONS 
       AND A TOTAL OF          5 INNER ITERATIONS.
    ------------------------------------------------

 NO OUTPUT CONTROL FOR STRESS PERIOD   40   TIME STEP   11
 
 SOLVING FOR HEAD 
                                                   Max.-Head-Change                         Max.-Flux-Residual
  Residual-Control   Outer-Iter.   Inner-Iter.     Column Row Layer    Maximum-Head-Change  Column Row Layer    Maximum-Flux-Residual          L2-NORM 
          0                 1           2             4    7     1       0.1143118873E-01       4    7    1         0.5980393519E+00      0.1682459112E+01
          0                 2           2             4    7     1      -0.1111341704E-02       4    7    1        -0.5977148510E-01      0.1681946865E+00
          0                 3           1             4    7     1       0.7562116477E-04       4    7    1         0.4180835601E-02      0.1176864833E-01

    ------------------------------------------------
       NWT REQUIRED            3 OUTER ITERATIONS 
       AND A TOTAL OF          5 INNER ITERATIONS.
    ------------------------------------------------

 NO OUTPUT CONTROL FOR STRESS PERIOD   40   TIME STEP   12
 
 SOLVING FOR HEAD 
                                                   Max.-Head-Change                         Max.-Flux-Residual
  Residual-Control   Outer-Iter.   Inner-Iter.     Column Row Layer    Maximum-Head-Change  Column Row Layer    Maximum-Flux-Residual          L2-NORM 
          0                 1           2             4    7     1       0.1135331234E-01       4    7    1         0.5939494372E+00      0.1673783768E+01
          0                 2           2             4    7     1      -0.1103770522E-02       4    7    1        -0.5936271332E-01      0.1673275520E+00
          0                 3           1             4    7     1       0.7510598338E-04       4    7    1         0.4152243157E-02      0.1170798925E-01

    ------------------------------------------------
       NWT REQUIRED            3 OUTER ITERATIONS 
       AND A TOTAL OF          5 INNER ITERATIONS.
    ------------------------------------------------

 NO OUTPUT CONTROL FOR STRESS PERIOD   40   TIME STEP   13
 
 SOLVING FOR HEAD 
                                                   Max.-Head-Change                         Max.-Flux-Residual
  Residual-Control   Outer-Iter.   Inner-Iter.     Column Row Layer    Maximum-Head-Change  Column Row Layer    Maximum-Flux-Residual          L2-NORM 
          0                 1           2             4    7     1       0.1127615386E-01       4    7    1         0.5898970040E+00      0.1665193936E+01
          0                 2           2             4    7     1      -0.1096269136E-02       4    7    1        -0.5895768765E-01      0.1664689492E+00
          0                 3           1             4    7     1       0.7459555156E-04       4    7    1         0.4123912764E-02      0.1164791859E-01

    ------------------------------------------------
       NWT REQUIRED            3 OUTER ITERATIONS 
       AND A TOTAL OF          5 INNER ITERATIONS.
    ------------------------------------------------

 NO OUTPUT CONTROL FOR STRESS PERIOD   40   TIME STEP   14
 
 SOLVING FOR HEAD 
                                                   Max.-Head-Change                         Max.-Flux-Residual
  Residual-Control   Outer-Iter.   Inner-Iter.     Column Row Layer    Maximum-Head-Change  Column Row Layer    Maximum-Flux-Residual          L2-NORM 
          0                 1           2             4    7     1       0.1119984030E-01       4    7    1         0.5858891170E+00      0.1656697338E+01
          0                 2           2             4    7     1      -0.1088849893E-02       4    7    1        -0.5855711427E-01      0.1656196856E+00
          0                 3           1             4    7     1       0.7409070925E-04       4    7    1         0.4095893799E-02      0.1158851636E-01

    ------------------------------------------------
       NWT REQUIRED            3 OUTER ITERATIONS 
       AND A TOTAL OF          5 INNER ITERATIONS.
    ------------------------------------------------

 NO OUTPUT CONTROL FOR STRESS PERIOD   40   TIME STEP   15
 
 SOLVING FOR HEAD 
                                                   Max.-Head-Change                         Max.-Flux-Residual
  Residual-Control   Outer-Iter.   Inner-Iter.     Column Row Layer    Maximum-Head-Change  Column Row Layer    Maximum-Flux-Residual          L2-NORM 
          0                 1           2             4    7     1       0.1112435205E-01       4    7    1         0.5819250370E+00      0.1648271594E+01
          0                 2           2             4    7     1      -0.1081510889E-02       4    7    1        -0.5816091928E-01      0.1647774804E+00
          0                 3           1             4    7     1       0.7359132639E-04       4    7    1         0.4068181079E-02      0.1152958530E-01

    ------------------------------------------------
       NWT REQUIRED            3 OUTER ITERATIONS 
       AND A TOTAL OF          5 INNER ITERATIONS.
    ------------------------------------------------

 NO OUTPUT CONTROL FOR STRESS PERIOD   40   TIME STEP   16
 
 SOLVING FOR HEAD 
                                                   Max.-Head-Change                         Max.-Flux-Residual
  Residual-Control   Outer-Iter.   Inner-Iter.     Column Row Layer    Maximum-Head-Change  Column Row Layer    Maximum-Flux-Residual          L2-NORM 
          0                 1           2             4    7     1       0.1104954631E-01       4    7    1         0.5779964242E+00      0.1639939213E+01
          0                 2           2             4    7     1      -0.1074238238E-02       4    7    1        -0.5776826912E-01      0.1639446194E+00
          0                 3           1             4    7     1       0.7309645868E-04       4    7    1         0.4040716299E-02      0.1147132783E-01

    ------------------------------------------------
       NWT REQUIRED            3 OUTER ITERATIONS 
       AND A TOTAL OF          5 INNER ITERATIONS.
    ------------------------------------------------

 NO OUTPUT CONTROL FOR STRESS PERIOD   40   TIME STEP   17
 
 SOLVING FOR HEAD 
                                                   Max.-Head-Change                         Max.-Flux-Residual
  Residual-Control   Outer-Iter.   Inner-Iter.     Column Row Layer    Maximum-Head-Change  Column Row Layer    Maximum-Flux-Residual          L2-NORM 
          0                 1           2             4    7     1       0.1097568287E-01       4    7    1         0.5741178468E+00      0.1631687866E+01
          0                 2           2             4    7     1      -0.1067057199E-02       4    7    1        -0.5738061985E-01      0.1631198700E+00
          0                 3           1             4    7     1       0.7260782552E-04       4    7    1         0.4013601369E-02      0.1141363426E-01

    ------------------------------------------------
       NWT REQUIRED            3 OUTER ITERATIONS 
       AND A TOTAL OF          5 INNER ITERATIONS.
    ------------------------------------------------

 NO OUTPUT CONTROL FOR STRESS PERIOD   40   TIME STEP   18
 
 SOLVING FOR HEAD 
                                                   Max.-Head-Change                         Max.-Flux-Residual
  Residual-Control   Outer-Iter.   Inner-Iter.     Column Row Layer    Maximum-Head-Change  Column Row Layer    Maximum-Flux-Residual          L2-NORM 
          0                 1           2             4    7     1       0.1090260793E-01       4    7    1         0.5702808015E+00      0.1623522129E+01
          0                 2           2             4    7     1      -0.1059952818E-02       4    7    1        -0.5699712157E-01      0.1623036579E+00
          0                 3           1             4    7     1       0.7212440747E-04       4    7    1         0.3986776735E-02      0.1135652640E-01

    ------------------------------------------------
       NWT REQUIRED            3 OUTER ITERATIONS 
       AND A TOTAL OF          5 INNER ITERATIONS.
    ------------------------------------------------

 NO OUTPUT CONTROL FOR STRESS PERIOD   40   TIME STEP   19
 
 SOLVING FOR HEAD 
                                                   Max.-Head-Change                         Max.-Flux-Residual
  Residual-Control   Outer-Iter.   Inner-Iter.     Column Row Layer    Maximum-Head-Change  Column Row Layer    Maximum-Flux-Residual          L2-NORM 
          0                 1           2             4    7     1       0.1083017619E-01       4    7    1         0.5664773137E+00      0.1615430590E+01
          0                 2           2             4    7     1      -0.1052910970E-02       4    7    1        -0.5661697727E-01      0.1614948705E+00
          0                 3           1             4    7     1       0.7164524503E-04       4    7    1         0.3960186729E-02      0.1129994639E-01

    ------------------------------------------------
       NWT REQUIRED            3 OUTER ITERATIONS 
       AND A TOTAL OF          5 INNER ITERATIONS.
    ------------------------------------------------

 NO OUTPUT CONTROL FOR STRESS PERIOD   40   TIME STEP   20
 
 SOLVING FOR HEAD 
                                                   Max.-Head-Change                         Max.-Flux-Residual
  Residual-Control   Outer-Iter.   Inner-Iter.     Column Row Layer    Maximum-Head-Change  Column Row Layer    Maximum-Flux-Residual          L2-NORM 
          0                 1           2             4    7     1       0.1075851102E-01       4    7    1         0.5627144999E+00      0.1607416477E+01
          0                 2           2             4    7     1      -0.1045943649E-02       4    7    1        -0.5624089820E-01      0.1606938150E+00
          0                 3           1             4    7     1       0.7117115380E-04       4    7    1         0.3933881067E-02      0.1124392260E-01

    ------------------------------------------------
       NWT REQUIRED            3 OUTER ITERATIONS 
       AND A TOTAL OF          5 INNER ITERATIONS.
    ------------------------------------------------

 NO OUTPUT CONTROL FOR STRESS PERIOD   40   TIME STEP   21
 
 SOLVING FOR HEAD 
                                                   Max.-Head-Change                         Max.-Flux-Residual
  Residual-Control   Outer-Iter.   Inner-Iter.     Column Row Layer    Maximum-Head-Change  Column Row Layer    Maximum-Flux-Residual          L2-NORM 
          0                 1           2             4    7     1       0.1068774013E-01       4    7    1         0.5589987566E+00      0.1599491618E+01
          0                 2           2             4    7     1      -0.1039063270E-02       4    7    1        -0.5586952369E-01      0.1599017207E+00
          0                 3           1             4    7     1       0.7070297821E-04       4    7    1         0.3907904479E-02      0.1118851757E-01

    ------------------------------------------------
       NWT REQUIRED            3 OUTER ITERATIONS 
       AND A TOTAL OF          5 INNER ITERATIONS.
    ------------------------------------------------

 NO OUTPUT CONTROL FOR STRESS PERIOD   40   TIME STEP   22
 
 SOLVING FOR HEAD 
                                                   Max.-Head-Change                         Max.-Flux-Residual
  Residual-Control   Outer-Iter.   Inner-Iter.     Column Row Layer    Maximum-Head-Change  Column Row Layer    Maximum-Flux-Residual          L2-NORM 
          0                 1           2             4    7     1       0.1061757025E-01       4    7    1         0.5553147293E+00      0.1591632470E+01
          0                 2           2             4    7     1      -0.1032241322E-02       4    7    1        -0.5550131910E-01      0.1591161624E+00
          0                 3           1             4    7     1       0.7023877885E-04       4    7    1         0.3882149605E-02      0.1113354587E-01

    ------------------------------------------------
       NWT REQUIRED            3 OUTER ITERATIONS 
       AND A TOTAL OF          5 INNER ITERATIONS.
    ------------------------------------------------

 NO OUTPUT CONTROL FOR STRESS PERIOD   40   TIME STEP   23
 
 SOLVING FOR HEAD 
                                                   Max.-Head-Change                         Max.-Flux-Residual
  Residual-Control   Outer-Iter.   Inner-Iter.     Column Row Layer    Maximum-Head-Change  Column Row Layer    Maximum-Flux-Residual          L2-NORM 
          0                 1           2             4    7     1       0.1054813373E-01       4    7    1         0.5516691888E+00      0.1583854919E+01
          0                 2           2             4    7     1      -0.1025490671E-02       4    7    1        -0.5513696111E-01      0.1583387389E+00
          0                 3           1             4    7     1       0.6977943082E-04       4    7    1         0.3856663807E-02      0.1107916876E-01

    ------------------------------------------------
       NWT REQUIRED            3 OUTER ITERATIONS 
       AND A TOTAL OF          5 INNER ITERATIONS.
    ------------------------------------------------

 NO OUTPUT CONTROL FOR STRESS PERIOD   40   TIME STEP   24
 
 SOLVING FOR HEAD 
                                                   Max.-Head-Change                         Max.-Flux-Residual
  Residual-Control   Outer-Iter.   Inner-Iter.     Column Row Layer    Maximum-Head-Change  Column Row Layer    Maximum-Flux-Residual          L2-NORM 
          0                 1           2             4    7     1       0.1047941817E-01       4    7    1         0.5480616718E+00      0.1576152604E+01
          0                 2           2             4    7     1      -0.1018810114E-02       4    7    1        -0.5477640351E-01      0.1575716509E+00
          0                 3           1             4    7     1       0.6932485223E-04       4    7    1         0.3831443838E-02      0.1102550623E-01

    ------------------------------------------------
       NWT REQUIRED            3 OUTER ITERATIONS 
       AND A TOTAL OF          5 INNER ITERATIONS.
    ------------------------------------------------

 NO OUTPUT CONTROL FOR STRESS PERIOD   40   TIME STEP   25
 
 SOLVING FOR HEAD 
                                                   Max.-Head-Change                         Max.-Flux-Residual
  Residual-Control   Outer-Iter.   Inner-Iter.     Column Row Layer    Maximum-Head-Change  Column Row Layer    Maximum-Flux-Residual          L2-NORM 
          0                 1           2             4    7     1       0.1041141273E-01       4    7    1         0.5444915351E+00      0.1568522514E+01
          0                 2           2             4    7     1      -0.1012198594E-02       4    7    1        -0.5441958190E-01      0.1568061755E+00
          0                 3           1             4    7     1       0.6887497149E-04       4    7    1         0.3806485182E-02      0.1097194493E-01

    ------------------------------------------------
       NWT REQUIRED            3 OUTER ITERATIONS 
       AND A TOTAL OF          5 INNER ITERATIONS.
    ------------------------------------------------

 NO OUTPUT CONTROL FOR STRESS PERIOD   40   TIME STEP   26
 
 SOLVING FOR HEAD 
                                                   Max.-Head-Change                         Max.-Flux-Residual
  Residual-Control   Outer-Iter.   Inner-Iter.     Column Row Layer    Maximum-Head-Change  Column Row Layer    Maximum-Flux-Residual          L2-NORM 
          0                 1           2             4    7     1       0.1034423842E-01       4    7    1         0.5409655432E+00      0.1560960525E+01
          0                 2           2             4    7     1      -0.1005667879E-02       4    7    1        -0.5406717248E-01      0.1560503375E+00
          0                 3           1             4    7     1       0.6843058890E-04       4    7    1         0.3781835148E-02      0.1091905636E-01

    ------------------------------------------------
       NWT REQUIRED            3 OUTER ITERATIONS 
       AND A TOTAL OF          5 INNER ITERATIONS.
    ------------------------------------------------

 NO OUTPUT CONTROL FOR STRESS PERIOD   40   TIME STEP   27
 
 SOLVING FOR HEAD 
                                                   Max.-Head-Change                         Max.-Flux-Residual
  Residual-Control   Outer-Iter.   Inner-Iter.     Column Row Layer    Maximum-Head-Change  Column Row Layer    Maximum-Flux-Residual          L2-NORM 
          0                 1           2             4    7     1       0.1027761136E-01       4    7    1         0.5374679919E+00      0.1553472789E+01
          0                 2           2             4    7     1      -0.9991903662E-03       4    7    1        -0.5371760555E-01      0.1553019121E+00
          0                 3           1             4    7     1       0.6798982635E-04       4    7    1         0.3757383940E-02      0.1086671948E-01

    ------------------------------------------------
       NWT REQUIRED            3 OUTER ITERATIONS 
       AND A TOTAL OF          5 INNER ITERATIONS.
    ------------------------------------------------

 NO OUTPUT CONTROL FOR STRESS PERIOD   40   TIME STEP   28
 
 SOLVING FOR HEAD 
                                                   Max.-Head-Change                         Max.-Flux-Residual
  Residual-Control   Outer-Iter.   Inner-Iter.     Column Row Layer    Maximum-Head-Change  Column Row Layer    Maximum-Flux-Residual          L2-NORM 
          0                 1           2             4    7     1       0.1021166231E-01       4    7    1         0.5340061402E+00      0.1546054918E+01
          0                 2           2             4    7     1      -0.9927787708E-03       4    7    1        -0.5337160671E-01      0.1545604517E+00
          0                 3           1             4    7     1       0.6755354947E-04       4    7    1         0.3733182307E-02      0.1081484667E-01

    ------------------------------------------------
       NWT REQUIRED            3 OUTER ITERATIONS 
       AND A TOTAL OF          5 INNER ITERATIONS.
    ------------------------------------------------

 NO OUTPUT CONTROL FOR STRESS PERIOD   40   TIME STEP   29
 
 SOLVING FOR HEAD 
                                                   Max.-Head-Change                         Max.-Flux-Residual
  Residual-Control   Outer-Iter.   Inner-Iter.     Column Row Layer    Maximum-Head-Change  Column Row Layer    Maximum-Flux-Residual          L2-NORM 
          0                 1           2             4    7     1       0.1014637842E-01       4    7    1         0.5305794424E+00      0.1538706878E+01
          0                 2           2             4    7     1      -0.9864318434E-03       4    7    1        -0.5302912137E-01      0.1538259650E+00
          0                 3           1             4    7     1       0.6712167294E-04       4    7    1         0.3709226436E-02      0.1076347705E-01

    ------------------------------------------------
       NWT REQUIRED            3 OUTER ITERATIONS 
       AND A TOTAL OF          5 INNER ITERATIONS.
    ------------------------------------------------

 NO OUTPUT CONTROL FOR STRESS PERIOD   40   TIME STEP   30



 STREAM LISTING     PERIOD     40   STEP       30

 LAYER ROW COL. STREAM  RCH.  FLOW INTO     FLOW TO   FLOW OUT OF   OVRLND.     DIRECT     STREAM       STREAM     STREAM     STREAM   STREAMBED  STREAMBED
                SEG.NO.  NO.  STRM. RCH.    AQUIFER    STRM. RCH.    RUNOFF     PRECIP       ET          HEAD       DEPTH      WIDTH   CONDCTNC.   GRADIENT

   1    1    1     1     1    1.9000E+01  2.1427E-01   1.8786E+01  0.000E+00  0.000E+00  0.000E+00  1.09413E+03  1.082E+00  1.166E+01  5.249E-02  1.361E+00
   1    2    2     1     2    1.8786E+01  3.3054E-01   1.8455E+01  0.000E+00  0.000E+00  0.000E+00  1.08914E+03  1.077E+00  1.158E+01  8.107E-02  1.359E+00
   1    3    3     1     3    1.8455E+01  2.8064E-01   1.8175E+01  0.000E+00  0.000E+00  0.000E+00  1.08349E+03  1.072E+00  1.149E+01  6.892E-02  1.357E+00
   1    3    4     1     4    1.8175E+01  2.5740E-01   1.7917E+01  0.000E+00  0.000E+00  0.000E+00  1.07848E+03  1.068E+00  1.140E+01  6.328E-02  1.356E+00
   1    4    5     2     1    1.5917E+01  3.0542E-01   1.5612E+01  0.000E+00  0.000E+00  0.000E+00  1.07285E+03  9.157E-01  1.200E+01  7.800E-02  1.305E+00
   1    5    6     2     2    1.5612E+01  2.3438E-01   1.5377E+01  0.000E+00  0.000E+00  0.000E+00  1.06742E+03  9.063E-01  1.200E+01  6.000E-02  1.302E+00
   1    6    6     2     3    1.5377E+01  2.3388E-01   1.5143E+01  0.000E+00  0.000E+00  0.000E+00  1.06269E+03  8.980E-01  1.200E+01  6.000E-02  1.299E+00
   1    7    6     2     4    1.5143E+01  2.3338E-01   1.4910E+01  0.000E+00  0.000E+00  0.000E+00  1.05797E+03  8.897E-01  1.200E+01  6.000E-02  1.297E+00
   1    8    6     2     5    1.4910E+01  2.3289E-01   1.4677E+01  0.000E+00  0.000E+00  0.000E+00  1.05324E+03  8.814E-01  1.200E+01  6.000E-02  1.294E+00
   1    3    5     3     1    2.0000E+00  2.8252E-01   1.7175E+00  0.000E+00  0.000E+00  0.000E+00  1.07555E+03  1.909E+00  9.636E+00  7.227E-02  1.955E+00
   1    3    6     3     2    1.7175E+00  2.4905E-01   1.4684E+00  0.000E+00  0.000E+00  0.000E+00  1.07264E+03  1.727E+00  8.909E+00  6.682E-02  1.864E+00
   1    3    7     3     3    1.4684E+00  1.9718E-01   1.2712E+00  0.000E+00  0.000E+00  0.000E+00  1.06987E+03  1.555E+00  8.218E+00  5.547E-02  1.777E+00
   1    4    8     3     4    1.2712E+00  2.2567E-01   1.0456E+00  0.000E+00  0.000E+00  0.000E+00  1.06682E+03  1.364E+00  7.455E+00  6.709E-02  1.682E+00
   1    5    8     3     5    1.0456E+00  1.5790E-01   8.8768E-01  0.000E+00  0.000E+00  0.000E+00  1.06362E+03  1.164E+00  6.655E+00  4.991E-02  1.582E+00
   1    6    8     3     6    8.8768E-01  5.5980E-02   8.3170E-01  0.000E+00  0.000E+00  0.000E+00  1.06158E+03  1.036E+00  6.145E+00  1.844E-02  1.518E+00
   1    5   10     4     1    1.0000E+01  9.0919E-02   9.9091E+00  0.000E+00  0.000E+00  0.000E+00  1.07836E+03  6.368E-01  1.000E+01  2.500E-02  1.212E+00
   1    5    9     4     2    9.9091E+00  1.8158E-01   9.7275E+00  0.000E+00  0.000E+00  0.000E+00  1.07154E+03  6.315E-01  1.000E+01  5.000E-02  1.211E+00
   1    6    8     4     3    9.7275E+00  1.2689E-01   9.6006E+00  0.000E+00  0.000E+00  0.000E+00  1.06381E+03  6.256E-01  1.000E+01  3.500E-02  1.209E+00
   1    6    8     5     1    1.0432E+01  2.2686E-01   1.0205E+01  0.000E+00  0.000E+00  0.000E+00  1.05868E+03  6.790E-01  1.542E+01  6.166E-02  1.226E+00
   1    7    7     5     2    1.0205E+01  2.7894E-01   9.9265E+00  0.000E+00  0.000E+00  0.000E+00  1.05417E+03  6.732E-01  1.519E+01  7.594E-02  1.224E+00
   1    8    7     5     3    9.9265E+00  1.9221E-01   9.7343E+00  0.000E+00  0.000E+00  0.000E+00  1.04992E+03  6.676E-01  1.497E+01  5.241E-02  1.223E+00
   1    8    6     5     4    9.7343E+00  1.3577E-01   9.5985E+00  0.000E+00  0.000E+00  0.000E+00  1.04691E+03  6.637E-01  1.482E+01  3.706E-02  1.221E+00
   1    9    6     6     1    2.4276E+01  2.5176E-01   2.4024E+01  0.000E+00  0.000E+00  0.000E+00  1.04392E+03  1.196E+00  1.200E+01  6.000E-02  1.399E+00
   1   10    7     6     2    2.4024E+01  2.5131E-01   2.3773E+01  0.000E+00  0.000E+00  0.000E+00  1.03937E+03  1.188E+00  1.200E+01  6.000E-02  1.396E+00
   1   11    7     6     3    2.3773E+01  2.5086E-01   2.3522E+01  0.000E+00  0.000E+00  0.000E+00  1.03482E+03  1.181E+00  1.200E+01  6.000E-02  1.394E+00
   1   12    7     6     4    2.3522E+01  2.5041E-01   2.3271E+01  0.000E+00  0.000E+00  0.000E+00  1.03026E+03  1.173E+00  1.200E+01  6.000E-02  1.391E+00
   1   13    7     6     5    2.3271E+01  1.0031E-02   2.3261E+01  0.000E+00  0.000E+00  0.000E+00  1.02708E+03  1.170E+00  1.200E+01  2.400E-02  1.393E-01
   1   14    9     7     1    1.5000E+02  1.3653E+00   1.4863E+02  0.000E+00  0.000E+00  0.000E+00  1.03987E+03  2.288E+00  5.529E+01  5.593E-01  8.137E-01
   1   13    8     7     2    1.4863E+02  1.9544E+00   1.4668E+02  0.000E+00  0.000E+00  0.000E+00  1.03478E+03  2.279E+00  5.525E+01  6.147E-01  1.060E+00
   1   13    7     7     3    1.4668E+02  1.6907E+00   1.4499E+02  0.000E+00  0.000E+00  0.000E+00  1.02969E+03  2.269E+00  5.521E+01  5.584E-01  1.009E+00
   1   13    6     8     1    1.6825E+02  1.1297E+00   1.6712E+02  0.000E+00  0.000E+00  0.000E+00  1.02481E+03  2.937E+00  4.259E+01  4.340E-01  8.677E-01
   1   13    5     8     2    1.6712E+02  3.7088E-01   1.6675E+02  0.000E+00  0.000E+00  0.000E+00  1.01856E+03  2.932E+00  4.252E+01  4.333E-01  2.853E-01
   1   13    4     8     3    1.6675E+02 -1.7770E+00   1.6853E+02  0.000E+00  0.000E+00  0.000E+00  1.01231E+03  2.937E+00  4.258E+01  4.339E+00 -1.365E-01
   1   13    3     8     4    1.6853E+02 -3.3291E+00   1.7186E+02  0.000E+00  0.000E+00  0.000E+00  1.00608E+03  2.953E+00  4.283E+01  4.364E+00 -2.543E-01
   1   13    2     8     5    1.7186E+02 -2.5003E+00   1.7436E+02  0.000E+00  0.000E+00  0.000E+00  9.99847E+02  2.972E+00  4.310E+01  4.392E+00 -1.898E-01
   1   13    1     8     6    1.7436E+02 -1.9630E+00   1.7632E+02  0.000E+00  0.000E+00  0.000E+00  9.94862E+02  2.987E+00  4.331E+01  2.648E+00 -2.471E-01





UNSATURATED ZONE PACKAGE VOLUMETRIC BUDGET FOR  TIME STEP    30 STRESS PERIOD   40
  ------------------------------------------------------------------------------



     CUMULATIVE VOLUMES      L**3       RATES FOR THIS TIME STEP      L**3/T
     ------------------                 ------------------------

           IN:                                      IN:
           ---                                      ---
        INFILTRATION =  1392128022.1419          INFILTRATION =           0.8475

          OUT:                                     OUT:
          ----                                     ----
              UZF ET =  1276991795.2352                UZF ET =           0.7500
        UZF RECHARGE =   113780005.8640          UZF RECHARGE =           0.0001

            IN - OUT =     1356221.0426              IN - OUT =       9.7365E-02

          STORAGE:                                 STORAGE:
          --------                                 --------
      STORAGE CHANGE =     1356227.0309        STORAGE CHANGE =       9.7365E-02

 PERCENT DISCREPANCY IS DIFFERENCE BETWEEN IN-OUT MINUS CHANGE IN STORAGE
 DIVIDED BY THE AVERAGE OF IN AND OUT TIMES 100

 PERCENT DISCREPANCY =           0.00     PERCENT DISCREPANCY =           0.00






1
  VOLUMETRIC BUDGET FOR AGRICULTURAL FIELDS AT  END OF TIME STEP   30, STRESS PERIOD  40
  ------------------------------------------------------------------------------

     CUMULATIVE VOLUMES      L**3       RATES FOR THIS TIME STEP      L**3/T
     ------------------                 ------------------------

           IN:                                      IN:
           ---                                      ---
               AG WELLS  =  1305126528.0000                 AG WELLS  =           0.0000
      DIVERSION SEGMENTS =           0.0000        DIVERSION SEGMENTS =           0.0000
           GW IRRIGATION =           0.0000             GW IRRIGATION =           0.0000
           SW IRRIGATION =           0.0000             SW IRRIGATION =           0.0000
        SYSTEM LOSSES GW =           0.0000          SYSTEM LOSSES GW =           0.0000
        SYSTEM LOSSES SW =           0.0000          SYSTEM LOSSES SW =           0.0000

                TOTAL IN =  1305126528.0000                  TOTAL IN =           0.0000

          OUT:                                     OUT:
          ----                                     ----
               AG WELLS  =           0.0000                 AG WELLS  =           0.0000
      DIVERSION SEGMENTS =           0.0000        DIVERSION SEGMENTS =           0.0000
           GW IRRIGATION =  1305126528.0000             GW IRRIGATION =           0.0000
           SW IRRIGATION =           0.0000             SW IRRIGATION =           0.0000
        SYSTEM LOSSES GW =           0.0000          SYSTEM LOSSES GW =           0.0000
        SYSTEM LOSSES SW =           0.0000          SYSTEM LOSSES SW =           0.0000

               TOTAL OUT =  1305126528.0000                 TOTAL OUT =           0.0000

                IN - OUT =           0.0000                  IN - OUT =           0.0000

     PERCENT DISCREPANCY =           0.00         PERCENT DISCREPANCY =           0.00



1
  VOLUMETRIC BUDGET FOR ENTIRE MODEL AT END OF TIME STEP   30, STRESS PERIOD  40
  ------------------------------------------------------------------------------

     CUMULATIVE VOLUMES      L**3       RATES FOR THIS TIME STEP      L**3/T
     ------------------                 ------------------------

           IN:                                      IN:
           ---                                      ---
             STORAGE     =  1770722048.0000               STORAGE     =           3.9845
       CONSTANT HEAD     =           0.0000         CONSTANT HEAD     =           0.0000
     HEAD DEP BOUNDS     =    29357620.0000       HEAD DEP BOUNDS     =           0.2878
      STREAM LEAKAGE     =  1257022336.0000        STREAM LEAKAGE     =          12.2496
        UZF RECHARGE     =   113780112.0000          UZF RECHARGE     =       1.3485E-04
               GW ET     =           0.0000                 GW ET     =           0.0000
     SURFACE LEAKAGE     =           0.0000       SURFACE LEAKAGE     =           0.0000
           AG WELLS      =           0.0000             AG WELLS      =           0.0000

                TOTAL IN =  3170882048.0000                  TOTAL IN =          16.5220

          OUT:                                     OUT:
          ----                                     ----
             STORAGE     =   770785408.0000               STORAGE     =           6.6645
       CONSTANT HEAD     =           0.0000         CONSTANT HEAD     =           0.0000
     HEAD DEP BOUNDS     =    29993016.0000       HEAD DEP BOUNDS     =           0.2889
      STREAM LEAKAGE     =  1047362368.0000        STREAM LEAKAGE     =           9.5693
        UZF RECHARGE     =           0.0000          UZF RECHARGE     =           0.0000
               GW ET     =    17607600.0000                 GW ET     =           0.0000
     SURFACE LEAKAGE     =           0.0000       SURFACE LEAKAGE     =           0.0000
           AG WELLS      =  1305126528.0000             AG WELLS      =           0.0000

               TOTAL OUT =  3170874880.0000                 TOTAL OUT =          16.5228

                IN - OUT =        7168.0000                  IN - OUT =      -7.6103E-04

     PERCENT DISCREPANCY =           0.00         PERCENT DISCREPANCY =          -0.00






         TIME SUMMARY AT END OF TIME STEP   30 IN STRESS PERIOD   40
                    SECONDS     MINUTES      HOURS       DAYS        YEARS
                    -----------------------------------------------------------
   TIME STEP LENGTH  87667.      1461.1      24.352      1.0147     2.77799E-03
 STRESS PERIOD TIME 2.63000E+06  43833.      730.56      30.440     8.33397E-02
         TOTAL TIME 1.02656E+08 1.71093E+06  28515.      1188.1      3.2530    
1
1
                            STRESS PERIOD NO.   41, LENGTH =   2630000.    
                            -----------------------------------------------

                              NUMBER OF TIME STEPS =    30

                               MULTIPLIER FOR DELT =     1.000

                            INITIAL TIME STEP SIZE =   87666.66    

 REUSING NON-PARAMETER GHB CELLS FROM LAST STRESS PERIOD

      2 GHB CELLS

 REUSING STREAM SEGMENT DATA FROM LAST STRESS PERIOD



            AREAL INFILTRATION RATE
 READING ON UNIT   19 WITH FORMAT: (FREE)              

            1           2           3           4           5           6           7           8           9          10
 ........................................................................................................................
   1   1.0000E-10  2.0000E-10   0.000       0.000       0.000       0.000       0.000       0.000       0.000       0.000    
   2   2.0000E-10  1.0000E-10  2.0000E-10   0.000       0.000      8.0000E-10  8.0000E-10  5.0000E-10   0.000       0.000    
   3    0.000      5.0000E-10  1.0000E-10  1.0000E-10  8.0000E-10  8.0000E-10  5.0000E-10  5.0000E-10   0.000       0.000    
   4   8.0000E-10  5.0000E-10  1.0000E-10  1.0000E-10  1.0000E-10  1.0000E-10  1.0000E-10  1.0000E-10  2.0000E-10   0.000    
   5   8.0000E-10  5.0000E-10  1.0000E-10  1.0000E-10  1.0000E-10  1.0000E-10  1.0000E-10  1.0000E-10  1.0000E-10  1.0000E-10
   6   8.0000E-10  5.0000E-10  5.0000E-10  2.0000E-10  2.0000E-10  1.0000E-10  1.0000E-10  1.0000E-10  1.0000E-10  5.0000E-10
   7   8.0000E-10  5.0000E-10  5.0000E-10  2.0000E-10  2.0000E-10  1.0000E-10  1.0000E-10  2.0000E-10  2.0000E-10   0.000    
   8    0.000      5.0000E-10  5.0000E-10  2.0000E-10  2.0000E-10  1.0000E-10  1.0000E-10  2.0000E-10  5.0000E-10   0.000    
   9    0.000      5.0000E-10  5.0000E-10  2.0000E-10  2.0000E-10  1.0000E-10  1.0000E-10  2.0000E-10  5.0000E-10   0.000    
  10    0.000      5.0000E-10  5.0000E-10  2.0000E-10  2.0000E-10  1.0000E-10  1.0000E-10  2.0000E-10  5.0000E-10  8.0000E-10
  11    0.000      1.0000E-10  1.0000E-10  1.0000E-10  1.0000E-10  1.0000E-10  1.0000E-10  2.0000E-10  5.0000E-10   0.000    
  12   1.0000E-10  1.0000E-10  1.0000E-10  1.0000E-10  1.0000E-10  1.0000E-10  1.0000E-10  1.0000E-10  2.0000E-10   0.000    
  13   1.0000E-10  1.0000E-10  2.0000E-10  2.0000E-10  2.0000E-10  2.0000E-10  2.0000E-10  1.0000E-10  1.0000E-10   0.000    
  14    0.000      2.0000E-10  5.0000E-10  5.0000E-10  5.0000E-10  5.0000E-10  5.0000E-10  2.0000E-10  1.0000E-10   0.000    
  15    0.000       0.000      8.0000E-10  8.0000E-10  8.0000E-10  8.0000E-10   0.000       0.000       0.000       0.000    

                  ET RATE =  2.500000E-08

 USING ET EXTINCTION DEPTH FROM PREVIOUS STRESS PERIOD. CURRENT PERIOD IS:      41

 USING EXTINCTION WATER CONTENT FROM PREVIOUS STRESS PERIOD. CURRENT PERIOD IS:      41

 USING AIR ENTRY PRESSURE FROM PREVIOUS STRESS PERIOD. CURRENT PERIOD IS:      41

 USING ROOT PRESSURE HEAD FROM PREVIOUS STRESS PERIOD. CURRENT PERIOD IS:      41

 USING ROOT ACTIVITY FROM PREVIOUS STRESS PERIOD. CURRENT PERIOD IS:      41

 PROCESSING AG STRESS PERIOD DATA

 READING AG STRESS PERIOD DATA

 READING IRRIGATION WELL

 END PROCESSING AG STRESS PERIOD DATA OPTIONS
 
 SOLVING FOR HEAD 
                                                   Max.-Head-Change                         Max.-Flux-Residual
  Residual-Control   Outer-Iter.   Inner-Iter.     Column Row Layer    Maximum-Head-Change  Column Row Layer    Maximum-Flux-Residual          L2-NORM 
          0                 1           2             3    7     1       0.8940301159E-02       4    9    1         0.3075516539E+00      0.1140585592E+01
          0                 2           2             3    7     1      -0.8696480250E-03       4    9    1        -0.3075518597E-01      0.1140577902E+00
          0                 3           1             3    7     1       0.5921987590E-04       4    9    1         0.2152863750E-02      0.7983966260E-02

    ------------------------------------------------
       NWT REQUIRED            3 OUTER ITERATIONS 
       AND A TOTAL OF          5 INNER ITERATIONS.
    ------------------------------------------------

 NO OUTPUT CONTROL FOR STRESS PERIOD   41   TIME STEP    1
 
 SOLVING FOR HEAD 
                                                   Max.-Head-Change                         Max.-Flux-Residual
  Residual-Control   Outer-Iter.   Inner-Iter.     Column Row Layer    Maximum-Head-Change  Column Row Layer    Maximum-Flux-Residual          L2-NORM 
          0                 1           2             3    7     1       0.8790437218E-02       4    9    1         0.2985304436E+00      0.1112385718E+01
          0                 2           2             3    7     1      -0.8550703278E-03       4    9    1        -0.2985306429E-01      0.1112377528E+00
          0                 3           1             3    7     1       0.5822718501E-04       4    9    1         0.2089715204E-02      0.7786546553E-02

    ------------------------------------------------
       NWT REQUIRED            3 OUTER ITERATIONS 
       AND A TOTAL OF          5 INNER ITERATIONS.
    ------------------------------------------------

 NO OUTPUT CONTROL FOR STRESS PERIOD   41   TIME STEP    2
 
 SOLVING FOR HEAD 
                                                   Max.-Head-Change                         Max.-Flux-Residual
  Residual-Control   Outer-Iter.   Inner-Iter.     Column Row Layer    Maximum-Head-Change  Column Row Layer    Maximum-Flux-Residual          L2-NORM 
          0                 1           2             3    7     1       0.8642530291E-02       4    9    1         0.2898561494E+00      0.1085834964E+01
          0                 2           2             3    7     1      -0.8406829964E-03       4    9    1        -0.2898563420E-01      0.1085826578E+00
          0                 3           1             3    7     1       0.5724745766E-04       4    9    1         0.2028995091E-02      0.7600710131E-02

    ------------------------------------------------
       NWT REQUIRED            3 OUTER ITERATIONS 
       AND A TOTAL OF          5 INNER ITERATIONS.
    ------------------------------------------------

 NO OUTPUT CONTROL FOR STRESS PERIOD   41   TIME STEP    3
 
 SOLVING FOR HEAD 
                                                   Max.-Head-Change                         Max.-Flux-Residual
  Residual-Control   Outer-Iter.   Inner-Iter.     Column Row Layer    Maximum-Head-Change  Column Row Layer    Maximum-Flux-Residual          L2-NORM 
          0                 1           2             3    7     1       0.8497327224E-02       4    9    1         0.2815181744E+00      0.1060810747E+01
          0                 2           2             3    7     1      -0.8265586779E-03       4    9    1        -0.2815183606E-01      0.1060802252E+00
          0                 3           1             3    7     1       0.5628564056E-04       4    9    1         0.1970629198E-02      0.7425639032E-02

    ------------------------------------------------
       NWT REQUIRED            3 OUTER ITERATIONS 
       AND A TOTAL OF          5 INNER ITERATIONS.
    ------------------------------------------------

 NO OUTPUT CONTROL FOR STRESS PERIOD   41   TIME STEP    4
 
 SOLVING FOR HEAD 
                                                   Max.-Head-Change                         Max.-Flux-Residual
  Residual-Control   Outer-Iter.   Inner-Iter.     Column Row Layer    Maximum-Head-Change  Column Row Layer    Maximum-Flux-Residual          L2-NORM 
          0                 1           2             3    7     1       0.8354581925E-02       4    9    1         0.2735056387E+00      0.1037205683E+01
          0                 2           2             3    7     1      -0.8126734352E-03       4    9    1        -0.2735058187E-01      0.1037197128E+00
          0                 3           1             3    7     1       0.5534010398E-04       4    9    1         0.1914541387E-02      0.7260310209E-02

    ------------------------------------------------
       NWT REQUIRED            3 OUTER ITERATIONS 
       AND A TOTAL OF          5 INNER ITERATIONS.
    ------------------------------------------------

 NO OUTPUT CONTROL FOR STRESS PERIOD   41   TIME STEP    5
 
 SOLVING FOR HEAD 
                                                   Max.-Head-Change                         Max.-Flux-Residual
  Residual-Control   Outer-Iter.   Inner-Iter.     Column Row Layer    Maximum-Head-Change  Column Row Layer    Maximum-Flux-Residual          L2-NORM 
          0                 1           2             3    7     1       0.8214051287E-02       4    9    1         0.2658011132E+00      0.1014920921E+01
          0                 2           2             3    7     1      -0.7990036203E-03       4    9    1        -0.2658012872E-01      0.1014911989E+00
          0                 3           1             3    7     1       0.5440923794E-04       4    9    1         0.1860609657E-02      0.7104296139E-02

    ------------------------------------------------
       NWT REQUIRED            3 OUTER ITERATIONS 
       AND A TOTAL OF          5 INNER ITERATIONS.
    ------------------------------------------------

 NO OUTPUT CONTROL FOR STRESS PERIOD   41   TIME STEP    6
 
 SOLVING FOR HEAD 
                                                   Max.-Head-Change                         Max.-Flux-Residual
  Residual-Control   Outer-Iter.   Inner-Iter.     Column Row Layer    Maximum-Head-Change  Column Row Layer    Maximum-Flux-Residual          L2-NORM 
          0                 1           2             3    7     1       0.8076223555E-02       4    9    1         0.2584006636E+00      0.9938577612E+00
          0                 2           2             3    7     1      -0.7855967253E-03       4    9    1        -0.2584008316E-01      0.9938486083E-01
          0                 3           1             3    7     1       0.5349627553E-04       4    9    1         0.1808806458E-02      0.6956837666E-02

    ------------------------------------------------
       NWT REQUIRED            3 OUTER ITERATIONS 
       AND A TOTAL OF          5 INNER ITERATIONS.
    ------------------------------------------------

 NO OUTPUT CONTROL FOR STRESS PERIOD   41   TIME STEP    7
 
 SOLVING FOR HEAD 
                                                   Max.-Head-Change                         Max.-Flux-Residual
  Residual-Control   Outer-Iter.   Inner-Iter.     Column Row Layer    Maximum-Head-Change  Column Row Layer    Maximum-Flux-Residual          L2-NORM 
          0                 1           2             3    7     1       0.7940595776E-02       4    9    1         0.2512932555E+00      0.9739432652E+00
          0                 2           2             3    7     1      -0.7724038266E-03       4    9    1        -0.2512934180E-01      0.9739339979E-01
          0                 3           1             3    7     1       0.5259788604E-04       4    9    1         0.1759054522E-02      0.6817480045E-02

    ------------------------------------------------
       NWT REQUIRED            3 OUTER ITERATIONS 
       AND A TOTAL OF          5 INNER ITERATIONS.
    ------------------------------------------------

 NO OUTPUT CONTROL FOR STRESS PERIOD   41   TIME STEP    8
 
 SOLVING FOR HEAD 
                                                   Max.-Head-Change                         Max.-Flux-Residual
  Residual-Control   Outer-Iter.   Inner-Iter.     Column Row Layer    Maximum-Head-Change  Column Row Layer    Maximum-Flux-Residual          L2-NORM 
          0                 1           2             3    7     1       0.7807402372E-02       4    9    1         0.2444683067E+00      0.9550867824E+00
          0                 2           2             3    7     1      -0.7594477284E-03       4    9    1        -0.2444684639E-01      0.9550776787E-01
          0                 3           1             3    7     1       0.5171562228E-04       4    9    1         0.1711279833E-02      0.6685498963E-02

    ------------------------------------------------
       NWT REQUIRED            3 OUTER ITERATIONS 
       AND A TOTAL OF          5 INNER ITERATIONS.
    ------------------------------------------------

 NO OUTPUT CONTROL FOR STRESS PERIOD   41   TIME STEP    9
 
 SOLVING FOR HEAD 
                                                   Max.-Head-Change                         Max.-Flux-Residual
  Residual-Control   Outer-Iter.   Inner-Iter.     Column Row Layer    Maximum-Head-Change  Column Row Layer    Maximum-Flux-Residual          L2-NORM 
          0                 1           2             3    7     1       0.7676871137E-02       4    9    1         0.2379152094E+00      0.9372250544E+00
          0                 2           2             3    7     1      -0.7467505869E-03       4    9    1        -0.2379153615E-01      0.9372155797E-01
          0                 3           1             3    7     1       0.5085099186E-04       4    9    1         0.1665408115E-02      0.6560407479E-02

    ------------------------------------------------
       NWT REQUIRED            3 OUTER ITERATIONS 
       AND A TOTAL OF          5 INNER ITERATIONS.
    ------------------------------------------------

 NO OUTPUT CONTROL FOR STRESS PERIOD   41   TIME STEP   10
 
 SOLVING FOR HEAD 
                                                   Max.-Head-Change                         Max.-Flux-Residual
  Residual-Control   Outer-Iter.   Inner-Iter.     Column Row Layer    Maximum-Head-Change  Column Row Layer    Maximum-Flux-Residual          L2-NORM 
          0                 1           2             3    7     1       0.7548489800E-02       4    9    1         0.2316301284E+00      0.9202919327E+00
          0                 2           2             3    7     1      -0.7342625730E-03       4    9    1        -0.2316302756E-01      0.9202822826E-01
          0                 3           1             3    7     1       0.5000060314E-04       4    9    1         0.1621412493E-02      0.6441875151E-02

    ------------------------------------------------
       NWT REQUIRED            3 OUTER ITERATIONS 
       AND A TOTAL OF          5 INNER ITERATIONS.
    ------------------------------------------------

 NO OUTPUT CONTROL FOR STRESS PERIOD   41   TIME STEP   11
 
 SOLVING FOR HEAD 
                                                   Max.-Head-Change                         Max.-Flux-Residual
  Residual-Control   Outer-Iter.   Inner-Iter.     Column Row Layer    Maximum-Head-Change  Column Row Layer    Maximum-Flux-Residual          L2-NORM 
          0                 1           2             3    7     1       0.7422486773E-02       4    9    1         0.2255960341E+00      0.9042230825E+00
          0                 2           2             3    7     1      -0.7220059051E-03       4    9    1        -0.2255961766E-01      0.9042137684E-01
          0                 3           1             3    7     1       0.4916596858E-04       4    9    1         0.1579173786E-02      0.6329425295E-02

    ------------------------------------------------
       NWT REQUIRED            3 OUTER ITERATIONS 
       AND A TOTAL OF          5 INNER ITERATIONS.
    ------------------------------------------------

 NO OUTPUT CONTROL FOR STRESS PERIOD   41   TIME STEP   12
 
 SOLVING FOR HEAD 
                                                   Max.-Head-Change                         Max.-Flux-Residual
  Residual-Control   Outer-Iter.   Inner-Iter.     Column Row Layer    Maximum-Head-Change  Column Row Layer    Maximum-Flux-Residual          L2-NORM 
          0                 1           2             3    7     1       0.7299079976E-02       4    9    1         0.2198031562E+00      0.8889668088E+00
          0                 2           2             3    7     1      -0.7100017792E-03       4    9    1        -0.2198032941E-01      0.8889570412E-01
          0                 3           1             3    7     1       0.4834853022E-04       4    9    1         0.1538623597E-02      0.6222622780E-02

    ------------------------------------------------
       NWT REQUIRED            3 OUTER ITERATIONS 
       AND A TOTAL OF          5 INNER ITERATIONS.
    ------------------------------------------------

 NO OUTPUT CONTROL FOR STRESS PERIOD   41   TIME STEP   13
 
 SOLVING FOR HEAD 
                                                   Max.-Head-Change                         Max.-Flux-Residual
  Residual-Control   Outer-Iter.   Inner-Iter.     Column Row Layer    Maximum-Head-Change  Column Row Layer    Maximum-Flux-Residual          L2-NORM 
          0                 1           2             3    7     1       0.7177992830E-02       4    9    1         0.2142418337E+00      0.8744644250E+00
          0                 2           2             3    7     1      -0.6982232936E-03       4    9    1        -0.2142419673E-01      0.8744548849E-01
          0                 3           1             3    7     1       0.4754645787E-04       4    9    1         0.1499694286E-02      0.6121102503E-02

    ------------------------------------------------
       NWT REQUIRED            3 OUTER ITERATIONS 
       AND A TOTAL OF          5 INNER ITERATIONS.
    ------------------------------------------------

 NO OUTPUT CONTROL FOR STRESS PERIOD   41   TIME STEP   14
 
 SOLVING FOR HEAD 
                                                   Max.-Head-Change                         Max.-Flux-Residual
  Residual-Control   Outer-Iter.   Inner-Iter.     Column Row Layer    Maximum-Head-Change  Column Row Layer    Maximum-Flux-Residual          L2-NORM 
          0                 1           2             3    7     1       0.7059196749E-02       4    9    1         0.2089090645E+00      0.8606690685E+00
          0                 2           2             3    7     1      -0.6866676668E-03       4    9    1        -0.2089091941E-01      0.8606591907E-01
          0                 3           1             3    7     1       0.4675956196E-04       4    9    1         0.1462364874E-02      0.6024514510E-02

    ------------------------------------------------
       NWT REQUIRED            3 OUTER ITERATIONS 
       AND A TOTAL OF          5 INNER ITERATIONS.
    ------------------------------------------------

 NO OUTPUT CONTROL FOR STRESS PERIOD   41   TIME STEP   15
 
 SOLVING FOR HEAD 
                                                   Max.-Head-Change                         Max.-Flux-Residual
  Residual-Control   Outer-Iter.   Inner-Iter.     Column Row Layer    Maximum-Head-Change  Column Row Layer    Maximum-Flux-Residual          L2-NORM 
          0                 1           2             3    7     1       0.6942663300E-02       4    9    1         0.2037890524E+00      0.8475398719E+00
          0                 2           2             3    7     1      -0.6753321323E-03       4    9    1        -0.2037891780E-01      0.8475300444E-01
          0                 3           1             3    7     1       0.4598765292E-04       4    9    1         0.1426524747E-02      0.5932634341E-02

    ------------------------------------------------
       NWT REQUIRED            3 OUTER ITERATIONS 
       AND A TOTAL OF          5 INNER ITERATIONS.
    ------------------------------------------------

 NO OUTPUT CONTROL FOR STRESS PERIOD   41   TIME STEP   16
 
 SOLVING FOR HEAD 
                                                   Max.-Head-Change                         Max.-Flux-Residual
  Residual-Control   Outer-Iter.   Inner-Iter.     Column Row Layer    Maximum-Head-Change  Column Row Layer    Maximum-Flux-Residual          L2-NORM 
          0                 1           2             3    7     1       0.6828360131E-02       4    9    1         0.1988793424E+00      0.8350317645E+00
          0                 2           2             3    7     1      -0.6642135445E-03       4    9    1        -0.1988794644E-01      0.8350220252E-01
          0                 3           1             3    7     1       0.4523051713E-04       4    9    1         0.1392156740E-02      0.5845071806E-02

    ------------------------------------------------
       NWT REQUIRED            3 OUTER ITERATIONS 
       AND A TOTAL OF          5 INNER ITERATIONS.
    ------------------------------------------------

 NO OUTPUT CONTROL FOR STRESS PERIOD   41   TIME STEP   17
 
 SOLVING FOR HEAD 
                                                   Max.-Head-Change                         Max.-Flux-Residual
  Residual-Control   Outer-Iter.   Inner-Iter.     Column Row Layer    Maximum-Head-Change  Column Row Layer    Maximum-Flux-Residual          L2-NORM 
          0                 1           2             3    7     1       0.6716495090E-02       4    9    1         0.1941709850E+00      0.8231106052E+00
          0                 2           2             3    7     1      -0.6533321201E-03       4    9    1        -0.1941711033E-01      0.8231003910E-01
          0                 3           1             3    7     1       0.4448953158E-04       4    9    1         0.1359198198E-02      0.5761576999E-02

    ------------------------------------------------
       NWT REQUIRED            3 OUTER ITERATIONS 
       AND A TOTAL OF          5 INNER ITERATIONS.
    ------------------------------------------------

 NO OUTPUT CONTROL FOR STRESS PERIOD   41   TIME STEP   18
 
 SOLVING FOR HEAD 
                                                   Max.-Head-Change                         Max.-Flux-Residual
  Residual-Control   Outer-Iter.   Inner-Iter.     Column Row Layer    Maximum-Head-Change  Column Row Layer    Maximum-Flux-Residual          L2-NORM 
          0                 1           2             3    7     1       0.6606786233E-02       4    9    1         0.1896555412E+00      0.8117403375E+00
          0                 2           2             3    7     1      -0.6426604339E-03       4    9    1        -0.1896556562E-01      0.8117308247E-01
          0                 3           1             3    7     1       0.4376282854E-04       4    9    1         0.1327590062E-02      0.5682061277E-02

    ------------------------------------------------
       NWT REQUIRED            3 OUTER ITERATIONS 
       AND A TOTAL OF          5 INNER ITERATIONS.
    ------------------------------------------------

 NO OUTPUT CONTROL FOR STRESS PERIOD   41   TIME STEP   19
 
 SOLVING FOR HEAD 
                                                   Max.-Head-Change                         Max.-Flux-Residual
  Residual-Control   Outer-Iter.   Inner-Iter.     Column Row Layer    Maximum-Head-Change  Column Row Layer    Maximum-Flux-Residual          L2-NORM 
          0                 1           2             3    7     1       0.6499441860E-02       4    9    1         0.1853184641E+00      0.8008778833E+00
          0                 2           2             3    7     1      -0.6322187481E-03       4    9    1        -0.1853185759E-01      0.8008680442E-01
          0                 3           1             3    7     1       0.4305178772E-04       4    9    1         0.1297230483E-02      0.5605979820E-02

    ------------------------------------------------
       NWT REQUIRED            3 OUTER ITERATIONS 
       AND A TOTAL OF          5 INNER ITERATIONS.
    ------------------------------------------------

 NO OUTPUT CONTROL FOR STRESS PERIOD   41   TIME STEP   20
 
 SOLVING FOR HEAD 
                                                   Max.-Head-Change                         Max.-Flux-Residual
  Residual-Control   Outer-Iter.   Inner-Iter.     Column Row Layer    Maximum-Head-Change  Column Row Layer    Maximum-Flux-Residual          L2-NORM 
          0                 1           2             3    7     1       0.6393932997E-02       4    9    1         0.1811582785E+00      0.7905035524E+00
          0                 2           2             3    7     1      -0.6219556074E-03       4    9    1        -0.1811583870E-01      0.7904933019E-01
          0                 3           1             3    7     1       0.4235290492E-04       4    9    1         0.1268109157E-02      0.5533395838E-02

    ------------------------------------------------
       NWT REQUIRED            3 OUTER ITERATIONS 
       AND A TOTAL OF          5 INNER ITERATIONS.
    ------------------------------------------------

 NO OUTPUT CONTROL FOR STRESS PERIOD   41   TIME STEP   21
 
 SOLVING FOR HEAD 
                                                   Max.-Head-Change                         Max.-Flux-Residual
  Residual-Control   Outer-Iter.   Inner-Iter.     Column Row Layer    Maximum-Head-Change  Column Row Layer    Maximum-Flux-Residual          L2-NORM 
          0                 1           2             3    7     1       0.6290957602E-02       4    9    1         0.1771608945E+00      0.7805862738E+00
          0                 2           2             3    7     1      -0.6119389048E-03       4    9    1        -0.1771610000E-01      0.7805766074E-01
          0                 3           1             3    7     1       0.4167080403E-04       4    9    1         0.1240127429E-02      0.5463970517E-02

    ------------------------------------------------
       NWT REQUIRED            3 OUTER ITERATIONS 
       AND A TOTAL OF          5 INNER ITERATIONS.
    ------------------------------------------------

 NO OUTPUT CONTROL FOR STRESS PERIOD   41   TIME STEP   22
 
 SOLVING FOR HEAD 
                                                   Max.-Head-Change                         Max.-Flux-Residual
  Residual-Control   Outer-Iter.   Inner-Iter.     Column Row Layer    Maximum-Head-Change  Column Row Layer    Maximum-Flux-Residual          L2-NORM 
          0                 1           2             3    7     1       0.6189738811E-02       4    9    1         0.1733322177E+00      0.7710972133E+00
          0                 2           2             3    7     1      -0.6020930718E-03       4    9    1        -0.1733323203E-01      0.7710873800E-01
          0                 3           1             3    7     1       0.4100033871E-04       4    9    1         0.1213326674E-02      0.5397517292E-02

    ------------------------------------------------
       NWT REQUIRED            3 OUTER ITERATIONS 
       AND A TOTAL OF          5 INNER ITERATIONS.
    ------------------------------------------------

 NO OUTPUT CONTROL FOR STRESS PERIOD   41   TIME STEP   23
 
 SOLVING FOR HEAD 
                                                   Max.-Head-Change                         Max.-Flux-Residual
  Residual-Control   Outer-Iter.   Inner-Iter.     Column Row Layer    Maximum-Head-Change  Column Row Layer    Maximum-Flux-Residual          L2-NORM 
          0                 1           2             3    7     1       0.6090972262E-02       4    9    1         0.1696582687E+00      0.7620182941E+00
          0                 2           2             3    7     1      -0.5924857755E-03       4    9    1        -0.1696583686E-01      0.7620084944E-01
          0                 3           1             3    7     1       0.4034611699E-04       4    9    1         0.1187608994E-02      0.5333981738E-02

    ------------------------------------------------
       NWT REQUIRED            3 OUTER ITERATIONS 
       AND A TOTAL OF          5 INNER ITERATIONS.
    ------------------------------------------------

 NO OUTPUT CONTROL FOR STRESS PERIOD   41   TIME STEP   24
 
 SOLVING FOR HEAD 
                                                   Max.-Head-Change                         Max.-Flux-Residual
  Residual-Control   Outer-Iter.   Inner-Iter.     Column Row Layer    Maximum-Head-Change  Column Row Layer    Maximum-Flux-Residual          L2-NORM 
          0                 1           2             3    7     1       0.5993881633E-02       4    9    1         0.1661259229E+00      0.7533150058E+00
          0                 2           2             3    7     1      -0.5830415009E-03       4    9    1        -0.1661260202E-01      0.7533054892E-01
          0                 3           1             3    7     1       0.3970299630E-04       4    9    1         0.1162882544E-02      0.5273066015E-02

    ------------------------------------------------
       NWT REQUIRED            3 OUTER ITERATIONS 
       AND A TOTAL OF          5 INNER ITERATIONS.
    ------------------------------------------------

 NO OUTPUT CONTROL FOR STRESS PERIOD   41   TIME STEP   25
 
 SOLVING FOR HEAD 
                                                   Max.-Head-Change                         Max.-Flux-Residual
  Residual-Control   Outer-Iter.   Inner-Iter.     Column Row Layer    Maximum-Head-Change  Column Row Layer    Maximum-Flux-Residual          L2-NORM 
          0                 1           2             3    7     1       0.5899161141E-02       4    9    1         0.1627416561E+00      0.7449692179E+00
          0                 2           2             3    7     1      -0.5738277760E-03       4    9    1        -0.1627417509E-01      0.7449595907E-01
          0                 3           1             3    7     1       0.3907557546E-04       4    9    1         0.1139192663E-02      0.5214648782E-02

    ------------------------------------------------
       NWT REQUIRED            3 OUTER ITERATIONS 
       AND A TOTAL OF          5 INNER ITERATIONS.
    ------------------------------------------------

 NO OUTPUT CONTROL FOR STRESS PERIOD   41   TIME STEP   26
 
 SOLVING FOR HEAD 
                                                   Max.-Head-Change                         Max.-Flux-Residual
  Residual-Control   Outer-Iter.   Inner-Iter.     Column Row Layer    Maximum-Head-Change  Column Row Layer    Maximum-Flux-Residual          L2-NORM 
          0                 1           2             3    7     1       0.5806275369E-02       4    9    1         0.1594924362E+00      0.7369666992E+00
          0                 2           2             3    7     1      -0.5591691988E-03       4    9    1        -0.1594925284E-01      0.7364919121E-01
          0                 3           1             3    7     1       0.3807737079E-04       4    9    1         0.1116448084E-02      0.5155362932E-02

    ------------------------------------------------
       NWT REQUIRED            3 OUTER ITERATIONS 
       AND A TOTAL OF          5 INNER ITERATIONS.
    ------------------------------------------------

 NO OUTPUT CONTROL FOR STRESS PERIOD   41   TIME STEP   27
 
 SOLVING FOR HEAD 
                                                   Max.-Head-Change                         Max.-Flux-Residual
  Residual-Control   Outer-Iter.   Inner-Iter.     Column Row Layer    Maximum-Head-Change  Column Row Layer    Maximum-Flux-Residual          L2-NORM 
          0                 1           2             3    7     1       0.5728155039E-02       9    5    1        -0.1589189060E+00      0.7293271613E+00
          0                 2           2             3    7     1      -0.5571943786E-03       9    5    1         0.1589187732E-01      0.7293171979E-01
          0                 3           1             3    7     1       0.3794289304E-04       9    5    1        -0.1112432032E-02      0.5105085943E-02

    ------------------------------------------------
       NWT REQUIRED            3 OUTER ITERATIONS 
       AND A TOTAL OF          5 INNER ITERATIONS.
    ------------------------------------------------

 NO OUTPUT CONTROL FOR STRESS PERIOD   41   TIME STEP   28
 
 SOLVING FOR HEAD 
                                                   Max.-Head-Change                         Max.-Flux-Residual
  Residual-Control   Outer-Iter.   Inner-Iter.     Column Row Layer    Maximum-Head-Change  Column Row Layer    Maximum-Flux-Residual          L2-NORM 
          0                 1           2             3    7     1       0.5646130299E-02       9    5    1        -0.1583996721E+00      0.7219977931E+00
          0                 2           2             3    7     1      -0.5492155731E-03       9    5    1         0.1583995400E-01      0.7219883599E-01
          0                 3           1             3    7     1       0.3739956576E-04       9    5    1        -0.1108797380E-02      0.5053841942E-02

    ------------------------------------------------
       NWT REQUIRED            3 OUTER ITERATIONS 
       AND A TOTAL OF          5 INNER ITERATIONS.
    ------------------------------------------------

 NO OUTPUT CONTROL FOR STRESS PERIOD   41   TIME STEP   29
 
 SOLVING FOR HEAD 
                                                   Max.-Head-Change                         Max.-Flux-Residual
  Residual-Control   Outer-Iter.   Inner-Iter.     Column Row Layer    Maximum-Head-Change  Column Row Layer    Maximum-Flux-Residual          L2-NORM 
          0                 1           2             3    7     1       0.5565462869E-02       9    5    1        -0.1578870139E+00      0.7149454852E+00
          0                 2           2             3    7     1      -0.5413687976E-03       9    5    1         0.1578868826E-01      0.7149361238E-01
          0                 3           1             3    7     1       0.3686522946E-04       9    5    1        -0.1105208786E-02      0.5004478062E-02

    ------------------------------------------------
       NWT REQUIRED            3 OUTER ITERATIONS 
       AND A TOTAL OF          5 INNER ITERATIONS.
    ------------------------------------------------

 NO OUTPUT CONTROL FOR STRESS PERIOD   41   TIME STEP   30



 STREAM LISTING     PERIOD     41   STEP       30

 LAYER ROW COL. STREAM  RCH.  FLOW INTO     FLOW TO   FLOW OUT OF   OVRLND.     DIRECT     STREAM       STREAM     STREAM     STREAM   STREAMBED  STREAMBED
                SEG.NO.  NO.  STRM. RCH.    AQUIFER    STRM. RCH.    RUNOFF     PRECIP       ET          HEAD       DEPTH      WIDTH   CONDCTNC.   GRADIENT

   1    1    1     1     1    1.9000E+01  2.1427E-01   1.8786E+01  0.000E+00  0.000E+00  0.000E+00  1.09413E+03  1.082E+00  1.166E+01  5.249E-02  1.361E+00
   1    2    2     1     2    1.8786E+01  3.3054E-01   1.8455E+01  0.000E+00  0.000E+00  0.000E+00  1.08914E+03  1.077E+00  1.158E+01  8.107E-02  1.359E+00
   1    3    3     1     3    1.8455E+01  2.8064E-01   1.8175E+01  0.000E+00  0.000E+00  0.000E+00  1.08349E+03  1.072E+00  1.149E+01  6.892E-02  1.357E+00
   1    3    4     1     4    1.8175E+01  2.5740E-01   1.7917E+01  0.000E+00  0.000E+00  0.000E+00  1.07848E+03  1.068E+00  1.140E+01  6.328E-02  1.356E+00
   1    4    5     2     1    1.5917E+01  3.0542E-01   1.5612E+01  0.000E+00  0.000E+00  0.000E+00  1.07285E+03  9.157E-01  1.200E+01  7.800E-02  1.305E+00
   1    5    6     2     2    1.5612E+01  2.3438E-01   1.5377E+01  0.000E+00  0.000E+00  0.000E+00  1.06742E+03  9.063E-01  1.200E+01  6.000E-02  1.302E+00
   1    6    6     2     3    1.5377E+01  2.3388E-01   1.5143E+01  0.000E+00  0.000E+00  0.000E+00  1.06269E+03  8.980E-01  1.200E+01  6.000E-02  1.299E+00
   1    7    6     2     4    1.5143E+01  2.3338E-01   1.4910E+01  0.000E+00  0.000E+00  0.000E+00  1.05797E+03  8.897E-01  1.200E+01  6.000E-02  1.297E+00
   1    8    6     2     5    1.4910E+01  2.3289E-01   1.4677E+01  0.000E+00  0.000E+00  0.000E+00  1.05324E+03  8.814E-01  1.200E+01  6.000E-02  1.294E+00
   1    3    5     3     1    2.0000E+00  2.8252E-01   1.7175E+00  0.000E+00  0.000E+00  0.000E+00  1.07555E+03  1.909E+00  9.636E+00  7.227E-02  1.955E+00
   1    3    6     3     2    1.7175E+00  2.4905E-01   1.4684E+00  0.000E+00  0.000E+00  0.000E+00  1.07264E+03  1.727E+00  8.909E+00  6.682E-02  1.864E+00
   1    3    7     3     3    1.4684E+00  1.9718E-01   1.2712E+00  0.000E+00  0.000E+00  0.000E+00  1.06987E+03  1.555E+00  8.218E+00  5.547E-02  1.777E+00
   1    4    8     3     4    1.2712E+00  2.2567E-01   1.0456E+00  0.000E+00  0.000E+00  0.000E+00  1.06682E+03  1.364E+00  7.455E+00  6.709E-02  1.682E+00
   1    5    8     3     5    1.0456E+00  1.5790E-01   8.8768E-01  0.000E+00  0.000E+00  0.000E+00  1.06362E+03  1.164E+00  6.655E+00  4.991E-02  1.582E+00
   1    6    8     3     6    8.8768E-01  5.5980E-02   8.3170E-01  0.000E+00  0.000E+00  0.000E+00  1.06158E+03  1.036E+00  6.145E+00  1.844E-02  1.518E+00
   1    5   10     4     1    1.0000E+01  9.0919E-02   9.9091E+00  0.000E+00  0.000E+00  0.000E+00  1.07836E+03  6.368E-01  1.000E+01  2.500E-02  1.212E+00
   1    5    9     4     2    9.9091E+00  1.8158E-01   9.7275E+00  0.000E+00  0.000E+00  0.000E+00  1.07154E+03  6.315E-01  1.000E+01  5.000E-02  1.211E+00
   1    6    8     4     3    9.7275E+00  1.2689E-01   9.6006E+00  0.000E+00  0.000E+00  0.000E+00  1.06381E+03  6.256E-01  1.000E+01  3.500E-02  1.209E+00
   1    6    8     5     1    1.0432E+01  2.2686E-01   1.0205E+01  0.000E+00  0.000E+00  0.000E+00  1.05868E+03  6.790E-01  1.542E+01  6.166E-02  1.226E+00
   1    7    7     5     2    1.0205E+01  2.7894E-01   9.9265E+00  0.000E+00  0.000E+00  0.000E+00  1.05417E+03  6.732E-01  1.519E+01  7.594E-02  1.224E+00
   1    8    7     5     3    9.9265E+00  1.9221E-01   9.7343E+00  0.000E+00  0.000E+00  0.000E+00  1.04992E+03  6.676E-01  1.497E+01  5.241E-02  1.223E+00
   1    8    6     5     4    9.7343E+00  1.3577E-01   9.5985E+00  0.000E+00  0.000E+00  0.000E+00  1.04691E+03  6.637E-01  1.482E+01  3.706E-02  1.221E+00
   1    9    6     6     1    2.4276E+01  2.5176E-01   2.4024E+01  0.000E+00  0.000E+00  0.000E+00  1.04392E+03  1.196E+00  1.200E+01  6.000E-02  1.399E+00
   1   10    7     6     2    2.4024E+01  2.5131E-01   2.3773E+01  0.000E+00  0.000E+00  0.000E+00  1.03937E+03  1.188E+00  1.200E+01  6.000E-02  1.396E+00
   1   11    7     6     3    2.3773E+01  2.5086E-01   2.3522E+01  0.000E+00  0.000E+00  0.000E+00  1.03482E+03  1.181E+00  1.200E+01  6.000E-02  1.394E+00
   1   12    7     6     4    2.3522E+01  2.5041E-01   2.3271E+01  0.000E+00  0.000E+00  0.000E+00  1.03026E+03  1.173E+00  1.200E+01  6.000E-02  1.391E+00
   1   13    7     6     5    2.3271E+01  1.0464E-02   2.3261E+01  0.000E+00  0.000E+00  0.000E+00  1.02708E+03  1.170E+00  1.200E+01  2.400E-02  1.453E-01
   1   14    9     7     1    1.5000E+02  1.3673E+00   1.4863E+02  0.000E+00  0.000E+00  0.000E+00  1.03987E+03  2.288E+00  5.529E+01  5.593E-01  8.149E-01
   1   13    8     7     2    1.4863E+02  1.9610E+00   1.4667E+02  0.000E+00  0.000E+00  0.000E+00  1.03478E+03  2.279E+00  5.525E+01  6.147E-01  1.063E+00
   1   13    7     7     3    1.4667E+02  1.7007E+00   1.4497E+02  0.000E+00  0.000E+00  0.000E+00  1.02969E+03  2.269E+00  5.521E+01  5.584E-01  1.015E+00
   1   13    6     8     1    1.6823E+02  1.1376E+00   1.6709E+02  0.000E+00  0.000E+00  0.000E+00  1.02481E+03  2.937E+00  4.259E+01  4.340E-01  8.738E-01
   1   13    5     8     2    1.6709E+02  3.7628E-01   1.6672E+02  0.000E+00  0.000E+00  0.000E+00  1.01856E+03  2.932E+00  4.251E+01  4.332E-01  2.895E-01
   1   13    4     8     3    1.6672E+02 -1.7631E+00   1.6848E+02  0.000E+00  0.000E+00  0.000E+00  1.01231E+03  2.937E+00  4.258E+01  4.339E+00 -1.354E-01
   1   13    3     8     4    1.6848E+02 -3.3194E+00   1.7180E+02  0.000E+00  0.000E+00  0.000E+00  1.00608E+03  2.953E+00  4.282E+01  4.364E+00 -2.536E-01
   1   13    2     8     5    1.7180E+02 -2.4967E+00   1.7430E+02  0.000E+00  0.000E+00  0.000E+00  9.99847E+02  2.972E+00  4.309E+01  4.391E+00 -1.895E-01
   1   13    1     8     6    1.7430E+02 -1.9619E+00   1.7626E+02  0.000E+00  0.000E+00  0.000E+00  9.94861E+02  2.986E+00  4.330E+01  2.647E+00 -2.470E-01





UNSATURATED ZONE PACKAGE VOLUMETRIC BUDGET FOR  TIME STEP    30 STRESS PERIOD   41
  ------------------------------------------------------------------------------



     CUMULATIVE VOLUMES      L**3       RATES FOR THIS TIME STEP      L**3/T
     ------------------                 ------------------------

           IN:                                      IN:
           ---                                      ---
        INFILTRATION =  1404140546.5496          INFILTRATION =           4.5675

          OUT:                                     OUT:
          ----                                     ----
              UZF ET =  1290286444.6853                UZF ET =           4.5675
        UZF RECHARGE =   113780005.8640          UZF RECHARGE =       0.0000E+00

            IN - OUT =       74096.0002              IN - OUT =       0.0000E+00

          STORAGE:                                 STORAGE:
          --------                                 --------
      STORAGE CHANGE =       74101.9870        STORAGE CHANGE =       8.5234E-15

 PERCENT DISCREPANCY IS DIFFERENCE BETWEEN IN-OUT MINUS CHANGE IN STORAGE
 DIVIDED BY THE AVERAGE OF IN AND OUT TIMES 100

 PERCENT DISCREPANCY =           0.00     PERCENT DISCREPANCY =           0.00






1
  VOLUMETRIC BUDGET FOR AGRICULTURAL FIELDS AT  END OF TIME STEP   30, STRESS PERIOD  41
  ------------------------------------------------------------------------------

     CUMULATIVE VOLUMES      L**3       RATES FOR THIS TIME STEP      L**3/T
     ------------------                 ------------------------

           IN:                                      IN:
           ---                                      ---
               AG WELLS  =  1314910848.0000                 AG WELLS  =           3.7200
      DIVERSION SEGMENTS =           0.0000        DIVERSION SEGMENTS =           0.0000
           GW IRRIGATION =           0.0000             GW IRRIGATION =           0.0000
           SW IRRIGATION =           0.0000             SW IRRIGATION =           0.0000
        SYSTEM LOSSES GW =           0.0000          SYSTEM LOSSES GW =           0.0000
        SYSTEM LOSSES SW =           0.0000          SYSTEM LOSSES SW =           0.0000

                TOTAL IN =  1314910848.0000                  TOTAL IN =           3.7200

          OUT:                                     OUT:
          ----                                     ----
               AG WELLS  =           0.0000                 AG WELLS  =           0.0000
      DIVERSION SEGMENTS =           0.0000        DIVERSION SEGMENTS =           0.0000
           GW IRRIGATION =  1314910848.0000             GW IRRIGATION =           3.7200
           SW IRRIGATION =           0.0000             SW IRRIGATION =           0.0000
        SYSTEM LOSSES GW =           0.0000          SYSTEM LOSSES GW =           0.0000
        SYSTEM LOSSES SW =           0.0000          SYSTEM LOSSES SW =           0.0000

               TOTAL OUT =  1314910848.0000                 TOTAL OUT =           3.7200

                IN - OUT =           0.0000                  IN - OUT =           0.0000

     PERCENT DISCREPANCY =           0.00         PERCENT DISCREPANCY =           0.00



1
  VOLUMETRIC BUDGET FOR ENTIRE MODEL AT END OF TIME STEP   30, STRESS PERIOD  41
  ------------------------------------------------------------------------------

     CUMULATIVE VOLUMES      L**3       RATES FOR THIS TIME STEP      L**3/T
     ------------------                 ------------------------

           IN:                                      IN:
           ---                                      ---
             STORAGE     =  1781546112.0000               STORAGE     =           3.4996
       CONSTANT HEAD     =           0.0000         CONSTANT HEAD     =           0.0000
     HEAD DEP BOUNDS     =    30114634.0000       HEAD DEP BOUNDS     =           0.2879
      STREAM LEAKAGE     =  1289283968.0000        STREAM LEAKAGE     =          12.2819
        UZF RECHARGE     =   113780112.0000          UZF RECHARGE     =           0.0000
               GW ET     =           0.0000                 GW ET     =           0.0000
     SURFACE LEAKAGE     =           0.0000       SURFACE LEAKAGE     =           0.0000
           AG WELLS      =           0.0000             AG WELLS      =           0.0000

                TOTAL IN =  3214725120.0000                  TOTAL IN =          16.0694

          OUT:                                     OUT:
          ----                                     ----
             STORAGE     =   778957120.0000               STORAGE     =           2.5191
       CONSTANT HEAD     =           0.0000         CONSTANT HEAD     =           0.0000
     HEAD DEP BOUNDS     =    30752822.0000       HEAD DEP BOUNDS     =           0.2889
      STREAM LEAKAGE     =  1072489280.0000        STREAM LEAKAGE     =           9.5411
        UZF RECHARGE     =           0.0000          UZF RECHARGE     =           0.0000
               GW ET     =    17607600.0000                 GW ET     =           0.0000
     SURFACE LEAKAGE     =           0.0000       SURFACE LEAKAGE     =           0.0000
           AG WELLS      =  1314910848.0000             AG WELLS      =           3.7200

               TOTAL OUT =  3214717696.0000                 TOTAL OUT =          16.0691

                IN - OUT =        7424.0000                  IN - OUT =       2.8610E-04

     PERCENT DISCREPANCY =           0.00         PERCENT DISCREPANCY =           0.00






         TIME SUMMARY AT END OF TIME STEP   30 IN STRESS PERIOD   41
                    SECONDS     MINUTES      HOURS       DAYS        YEARS
                    -----------------------------------------------------------
   TIME STEP LENGTH  87667.      1461.1      24.352      1.0147     2.77799E-03
 STRESS PERIOD TIME 2.63000E+06  43833.      730.56      30.440     8.33397E-02
         TOTAL TIME 1.05286E+08 1.75476E+06  29246.      1218.6      3.3363    
1
1
                            STRESS PERIOD NO.   42, LENGTH =   2630000.    
                            -----------------------------------------------

                              NUMBER OF TIME STEPS =    30

                               MULTIPLIER FOR DELT =     1.000

                            INITIAL TIME STEP SIZE =   87666.66    

 REUSING NON-PARAMETER GHB CELLS FROM LAST STRESS PERIOD

      2 GHB CELLS

 REUSING STREAM SEGMENT DATA FROM LAST STRESS PERIOD



            AREAL INFILTRATION RATE
 READING ON UNIT   19 WITH FORMAT: (FREE)              

            1           2           3           4           5           6           7           8           9          10
 ........................................................................................................................
   1   1.0000E-10  2.0000E-10   0.000       0.000       0.000       0.000       0.000       0.000       0.000       0.000    
   2   2.0000E-10  1.0000E-10  2.0000E-10   0.000       0.000      8.0000E-10  8.0000E-10  5.0000E-10   0.000       0.000    
   3    0.000      5.0000E-10  1.0000E-10  1.0000E-10  8.0000E-10  8.0000E-10  5.0000E-10  5.0000E-10   0.000       0.000    
   4   8.0000E-10  5.0000E-10  1.0000E-10  1.0000E-10  1.0000E-10  1.0000E-10  1.0000E-10  1.0000E-10  2.0000E-10   0.000    
   5   8.0000E-10  5.0000E-10  1.0000E-10  1.0000E-10  1.0000E-10  1.0000E-10  1.0000E-10  1.0000E-10  1.0000E-10  1.0000E-10
   6   8.0000E-10  5.0000E-10  5.0000E-10  2.0000E-10  2.0000E-10  1.0000E-10  1.0000E-10  1.0000E-10  1.0000E-10  5.0000E-10
   7   8.0000E-10  5.0000E-10  5.0000E-10  2.0000E-10  2.0000E-10  1.0000E-10  1.0000E-10  2.0000E-10  2.0000E-10   0.000    
   8    0.000      5.0000E-10  5.0000E-10  2.0000E-10  2.0000E-10  1.0000E-10  1.0000E-10  2.0000E-10  5.0000E-10   0.000    
   9    0.000      5.0000E-10  5.0000E-10  2.0000E-10  2.0000E-10  1.0000E-10  1.0000E-10  2.0000E-10  5.0000E-10   0.000    
  10    0.000      5.0000E-10  5.0000E-10  2.0000E-10  2.0000E-10  1.0000E-10  1.0000E-10  2.0000E-10  5.0000E-10  8.0000E-10
  11    0.000      1.0000E-10  1.0000E-10  1.0000E-10  1.0000E-10  1.0000E-10  1.0000E-10  2.0000E-10  5.0000E-10   0.000    
  12   1.0000E-10  1.0000E-10  1.0000E-10  1.0000E-10  1.0000E-10  1.0000E-10  1.0000E-10  1.0000E-10  2.0000E-10   0.000    
  13   1.0000E-10  1.0000E-10  2.0000E-10  2.0000E-10  2.0000E-10  2.0000E-10  2.0000E-10  1.0000E-10  1.0000E-10   0.000    
  14    0.000      2.0000E-10  5.0000E-10  5.0000E-10  5.0000E-10  5.0000E-10  5.0000E-10  2.0000E-10  1.0000E-10   0.000    
  15    0.000       0.000      8.0000E-10  8.0000E-10  8.0000E-10  8.0000E-10   0.000       0.000       0.000       0.000    

                  ET RATE =  5.000000E-08

 USING ET EXTINCTION DEPTH FROM PREVIOUS STRESS PERIOD. CURRENT PERIOD IS:      42

 USING EXTINCTION WATER CONTENT FROM PREVIOUS STRESS PERIOD. CURRENT PERIOD IS:      42

 USING AIR ENTRY PRESSURE FROM PREVIOUS STRESS PERIOD. CURRENT PERIOD IS:      42

 USING ROOT PRESSURE HEAD FROM PREVIOUS STRESS PERIOD. CURRENT PERIOD IS:      42

 USING ROOT ACTIVITY FROM PREVIOUS STRESS PERIOD. CURRENT PERIOD IS:      42

 PROCESSING AG STRESS PERIOD DATA

 READING AG STRESS PERIOD DATA

 READING IRRIGATION WELL

 END PROCESSING AG STRESS PERIOD DATA OPTIONS
 
 SOLVING FOR HEAD 
                                                   Max.-Head-Change                         Max.-Flux-Residual
  Residual-Control   Outer-Iter.   Inner-Iter.     Column Row Layer    Maximum-Head-Change  Column Row Layer    Maximum-Flux-Residual          L2-NORM 
          0                 1           2             4    7     1      -0.1260585233E-01       4    7    1        -0.6603168818E+00      0.1715695680E+01
          0                 2           2             4    7     1       0.1226205266E-02       4    7    1         0.6603166711E-01      0.1715689124E+00
          0                 3           1             4    7     1      -0.8350003597E-04       4    7    1        -0.4622218894E-02      0.1200980581E-01

    ------------------------------------------------
       NWT REQUIRED            3 OUTER ITERATIONS 
       AND A TOTAL OF          5 INNER ITERATIONS.
    ------------------------------------------------

 NO OUTPUT CONTROL FOR STRESS PERIOD   42   TIME STEP    1
 
 SOLVING FOR HEAD 
                                                   Max.-Head-Change                         Max.-Flux-Residual
  Residual-Control   Outer-Iter.   Inner-Iter.     Column Row Layer    Maximum-Head-Change  Column Row Layer    Maximum-Flux-Residual          L2-NORM 
          0                 1           2             4    7     1      -0.1249804249E-01       4    7    1        -0.6549799749E+00      0.1676648365E+01
          0                 2           2             4    7     1       0.1215718138E-02       4    7    1         0.6549796461E-01      0.1676641798E+00
          0                 3           1             4    7     1      -0.8278590325E-04       4    7    1        -0.4584859815E-02      0.1173646520E-01

    ------------------------------------------------
       NWT REQUIRED            3 OUTER ITERATIONS 
       AND A TOTAL OF          5 INNER ITERATIONS.
    ------------------------------------------------

 NO OUTPUT CONTROL FOR STRESS PERIOD   42   TIME STEP    2
 
 SOLVING FOR HEAD 
                                                   Max.-Head-Change                         Max.-Flux-Residual
  Residual-Control   Outer-Iter.   Inner-Iter.     Column Row Layer    Maximum-Head-Change  Column Row Layer    Maximum-Flux-Residual          L2-NORM 
          0                 1           2             4    7     1      -0.1238560274E-01       4    7    1        -0.6493753583E+00      0.1639384778E+01
          0                 2           2             4    7     1       0.1204780665E-02       4    7    1         0.6493749241E-01      0.1639378378E+00
          0                 3           1             4    7     1      -0.8204110347E-04       4    7    1        -0.4545626846E-02      0.1147563017E-01

    ------------------------------------------------
       NWT REQUIRED            3 OUTER ITERATIONS 
       AND A TOTAL OF          5 INNER ITERATIONS.
    ------------------------------------------------

 NO OUTPUT CONTROL FOR STRESS PERIOD   42   TIME STEP    3
 
 SOLVING FOR HEAD 
                                                   Max.-Head-Change                         Max.-Flux-Residual
  Residual-Control   Outer-Iter.   Inner-Iter.     Column Row Layer    Maximum-Head-Change  Column Row Layer    Maximum-Flux-Residual          L2-NORM 
          0                 1           2             4    7     1      -0.1226916757E-01       4    7    1        -0.6435380181E+00      0.1603779380E+01
          0                 2           2             4    7     1       0.1193454564E-02       4    7    1         0.6435374901E-01      0.1603773050E+00
          0                 3           1             4    7     1      -0.8126983959E-04       4    7    1        -0.4504764893E-02      0.1122638483E-01

    ------------------------------------------------
       NWT REQUIRED            3 OUTER ITERATIONS 
       AND A TOTAL OF          5 INNER ITERATIONS.
    ------------------------------------------------

 NO OUTPUT CONTROL FOR STRESS PERIOD   42   TIME STEP    4
 
 SOLVING FOR HEAD 
                                                   Max.-Head-Change                         Max.-Flux-Residual
  Residual-Control   Outer-Iter.   Inner-Iter.     Column Row Layer    Maximum-Head-Change  Column Row Layer    Maximum-Flux-Residual          L2-NORM 
          0                 1           2             4    7     1      -0.1214906422E-01       4    7    1        -0.6374861996E+00      0.1569730042E+01
          0                 2           2             4    7     1       0.1181771664E-02       4    7    1         0.6374855885E-01      0.1569723677E+00
          0                 3           1             4    7     1      -0.8047427824E-04       4    7    1        -0.4462401625E-02      0.1098803230E-01

    ------------------------------------------------
       NWT REQUIRED            3 OUTER ITERATIONS 
       AND A TOTAL OF          5 INNER ITERATIONS.
    ------------------------------------------------

 NO OUTPUT CONTROL FOR STRESS PERIOD   42   TIME STEP    5
 
 SOLVING FOR HEAD 
                                                   Max.-Head-Change                         Max.-Flux-Residual
  Residual-Control   Outer-Iter.   Inner-Iter.     Column Row Layer    Maximum-Head-Change  Column Row Layer    Maximum-Flux-Residual          L2-NORM 
          0                 1           2             4    7     1      -0.1202573269E-01       4    7    1        -0.6312441959E+00      0.1537131159E+01
          0                 2           2             4    7     1       0.1169774764E-02       4    7    1         0.6312435114E-01      0.1537124801E+00
          0                 3           1             4    7     1      -0.7965733501E-04       4    7    1        -0.4418707145E-02      0.1075984627E-01

    ------------------------------------------------
       NWT REQUIRED            3 OUTER ITERATIONS 
       AND A TOTAL OF          5 INNER ITERATIONS.
    ------------------------------------------------

 NO OUTPUT CONTROL FOR STRESS PERIOD   42   TIME STEP    6
 
 SOLVING FOR HEAD 
                                                   Max.-Head-Change                         Max.-Flux-Residual
  Residual-Control   Outer-Iter.   Inner-Iter.     Column Row Layer    Maximum-Head-Change  Column Row Layer    Maximum-Flux-Residual          L2-NORM 
          0                 1           2             4    7     1      -0.1189958928E-01       4    7    1        -0.6248348199E+00      0.1505902410E+01
          0                 2           2             4    7     1       0.1157504361E-02       4    7    1         0.6248340715E-01      0.1505896120E+00
          0                 3           1             4    7     1      -0.7882176712E-04       4    7    1        -0.4373841112E-02      0.1054124313E-01

    ------------------------------------------------
       NWT REQUIRED            3 OUTER ITERATIONS 
       AND A TOTAL OF          5 INNER ITERATIONS.
    ------------------------------------------------

 NO OUTPUT CONTROL FOR STRESS PERIOD   42   TIME STEP    7
 
 SOLVING FOR HEAD 
                                                   Max.-Head-Change                         Max.-Flux-Residual
  Residual-Control   Outer-Iter.   Inner-Iter.     Column Row Layer    Maximum-Head-Change  Column Row Layer    Maximum-Flux-Residual          L2-NORM 
          0                 1           2             4    7     1      -0.1177101799E-01       4    7    1        -0.6182796571E+00      0.1475958034E+01
          0                 2           2             4    7     1       0.1144997801E-02       4    7    1         0.6182788530E-01      0.1475951824E+00
          0                 3           1             4    7     1      -0.7797011740E-04       4    7    1        -0.4327954605E-02      0.1033163900E-01

    ------------------------------------------------
       NWT REQUIRED            3 OUTER ITERATIONS 
       AND A TOTAL OF          5 INNER ITERATIONS.
    ------------------------------------------------

 NO OUTPUT CONTROL FOR STRESS PERIOD   42   TIME STEP    8
 
 SOLVING FOR HEAD 
                                                   Max.-Head-Change                         Max.-Flux-Residual
  Residual-Control   Outer-Iter.   Inner-Iter.     Column Row Layer    Maximum-Head-Change  Column Row Layer    Maximum-Flux-Residual          L2-NORM 
          0                 1           2             4    7     1      -0.1164037634E-01       4    7    1        -0.6115986162E+00      0.1447218366E+01
          0                 2           2             4    7     1       0.1132289863E-02       4    7    1         0.6115977640E-01      0.1447212098E+00
          0                 3           1             4    7     1      -0.7710475437E-04       4    7    1        -0.4281187002E-02      0.1013045507E-01

    ------------------------------------------------
       NWT REQUIRED            3 OUTER ITERATIONS 
       AND A TOTAL OF          5 INNER ITERATIONS.
    ------------------------------------------------

 NO OUTPUT CONTROL FOR STRESS PERIOD   42   TIME STEP    9
 
 SOLVING FOR HEAD 
                                                   Max.-Head-Change                         Max.-Flux-Residual
  Residual-Control   Outer-Iter.   Inner-Iter.     Column Row Layer    Maximum-Head-Change  Column Row Layer    Maximum-Flux-Residual          L2-NORM 
          0                 1           2             4    7     1      -0.1150813590E-01       4    7    1        -0.6048175586E+00      0.1419620984E+01
          0                 2           2             4    7     1       0.1119426416E-02       4    7    1         0.6048166649E-01      0.1419614835E+00
          0                 3           1             4    7     1      -0.7622880197E-04       4    7    1        -0.4233719313E-02      0.9937272349E-02

    ------------------------------------------------
       NWT REQUIRED            3 OUTER ITERATIONS 
       AND A TOTAL OF          5 INNER ITERATIONS.
    ------------------------------------------------

 NO OUTPUT CONTROL FOR STRESS PERIOD   42   TIME STEP   10
 
 SOLVING FOR HEAD 
                                                   Max.-Head-Change                         Max.-Flux-Residual
  Residual-Control   Outer-Iter.   Inner-Iter.     Column Row Layer    Maximum-Head-Change  Column Row Layer    Maximum-Flux-Residual          L2-NORM 
          0                 1           2             4    7     1      -0.1137433402E-01       4    7    1        -0.5979389617E+00      0.1393099616E+01
          0                 2           2             4    7     1       0.1106411094E-02       4    7    1         0.5979380333E-01      0.1393093316E+00
          0                 3           1             4    7     1      -0.7534250720E-04       4    7    1        -0.4185568911E-02      0.9751619300E-02

    ------------------------------------------------
       NWT REQUIRED            3 OUTER ITERATIONS 
       AND A TOTAL OF          5 INNER ITERATIONS.
    ------------------------------------------------

 NO OUTPUT CONTROL FOR STRESS PERIOD   42   TIME STEP   11
 
 SOLVING FOR HEAD 
                                                   Max.-Head-Change                         Max.-Flux-Residual
  Residual-Control   Outer-Iter.   Inner-Iter.     Column Row Layer    Maximum-Head-Change  Column Row Layer    Maximum-Flux-Residual          L2-NORM 
          0                 1           2             4    7     1      -0.1123953152E-01       4    7    1        -0.5909940589E+00      0.1367582469E+01
          0                 2           2             4    7     1       0.1093298446E-02       4    7    1         0.5909931012E-01      0.1367576480E+00
          0                 3           1             4    7     1      -0.7444958509E-04       4    7    1        -0.4136954400E-02      0.9573022153E-02

    ------------------------------------------------
       NWT REQUIRED            3 OUTER ITERATIONS 
       AND A TOTAL OF          5 INNER ITERATIONS.
    ------------------------------------------------

 NO OUTPUT CONTROL FOR STRESS PERIOD   42   TIME STEP   12
 
 SOLVING FOR HEAD 
                                                   Max.-Head-Change                         Max.-Flux-Residual
  Residual-Control   Outer-Iter.   Inner-Iter.     Column Row Layer    Maximum-Head-Change  Column Row Layer    Maximum-Flux-Residual          L2-NORM 
          0                 1           2             4    7     1      -0.1110371948E-01       4    7    1        -0.5839826315E+00      0.1343023068E+01
          0                 2           2             4    7     1       0.1080066726E-02       4    7    1         0.5839816500E-01      0.1342492248E+00
          0                 3           1             4    7     1      -0.7354855409E-04       4    7    1        -0.4087874242E-02      0.9397414970E-02

    ------------------------------------------------
       NWT REQUIRED            3 OUTER ITERATIONS 
       AND A TOTAL OF          5 INNER ITERATIONS.
    ------------------------------------------------

 NO OUTPUT CONTROL FOR STRESS PERIOD   42   TIME STEP   13
 
 SOLVING FOR HEAD 
                                                   Max.-Head-Change                         Max.-Flux-Residual
  Residual-Control   Outer-Iter.   Inner-Iter.     Column Row Layer    Maximum-Head-Change  Column Row Layer    Maximum-Flux-Residual          L2-NORM 
          0                 1           2             4    7     1      -0.1096756024E-01       4    7    1        -0.5769346222E+00      0.1319404461E+01
          0                 2           2             4    7     1       0.1066843022E-02       4    7    1         0.5769336233E-01      0.1319398964E+00
          0                 3           1             4    7     1      -0.7264806945E-04       4    7    1        -0.4038538062E-02      0.9235758645E-02

    ------------------------------------------------
       NWT REQUIRED            3 OUTER ITERATIONS 
       AND A TOTAL OF          5 INNER ITERATIONS.
    ------------------------------------------------

 NO OUTPUT CONTROL FOR STRESS PERIOD   42   TIME STEP   14
 
 SOLVING FOR HEAD 
                                                   Max.-Head-Change                         Max.-Flux-Residual
  Residual-Control   Outer-Iter.   Inner-Iter.     Column Row Layer    Maximum-Head-Change  Column Row Layer    Maximum-Flux-Residual          L2-NORM 
          0                 1           2             4    7     1      -0.1083092984E-01       4    7    1        -0.5698517487E+00      0.1296766052E+01
          0                 2           2             4    7     1       0.1053552592E-02       4    7    1         0.5698507363E-01      0.1296760577E+00
          0                 3           1             4    7     1      -0.7174304056E-04       4    7    1        -0.3988957838E-02      0.9077288428E-02

    ------------------------------------------------
       NWT REQUIRED            3 OUTER ITERATIONS 
       AND A TOTAL OF          5 INNER ITERATIONS.
    ------------------------------------------------

 NO OUTPUT CONTROL FOR STRESS PERIOD   42   TIME STEP   15
 
 SOLVING FOR HEAD 
                                                   Max.-Head-Change                         Max.-Flux-Residual
  Residual-Control   Outer-Iter.   Inner-Iter.     Column Row Layer    Maximum-Head-Change  Column Row Layer    Maximum-Flux-Residual          L2-NORM 
          0                 1           2             4    7     1      -0.1069419404E-01       4    7    1        -0.5627528846E+00      0.1274932256E+01
          0                 2           2             4    7     1       0.1040251914E-02       4    7    1         0.5627518624E-01      0.1274926925E+00
          0                 3           1             4    7     1      -0.7083731372E-04       4    7    1        -0.3939265700E-02      0.8924461641E-02

    ------------------------------------------------
       NWT REQUIRED            3 OUTER ITERATIONS 
       AND A TOTAL OF          5 INNER ITERATIONS.
    ------------------------------------------------

 NO OUTPUT CONTROL FOR STRESS PERIOD   42   TIME STEP   16
 
 SOLVING FOR HEAD 
                                                   Max.-Head-Change                         Max.-Flux-Residual
  Residual-Control   Outer-Iter.   Inner-Iter.     Column Row Layer    Maximum-Head-Change  Column Row Layer    Maximum-Flux-Residual          L2-NORM 
          0                 1           2             4    7     1      -0.1055766932E-01       4    7    1        -0.5556558823E+00      0.1253862025E+01
          0                 2           2             4    7     1       0.1026971773E-02       4    7    1         0.5556548536E-01      0.1253856731E+00
          0                 3           1             4    7     1      -0.6993298551E-04       4    7    1        -0.3889586630E-02      0.8776975796E-02

    ------------------------------------------------
       NWT REQUIRED            3 OUTER ITERATIONS 
       AND A TOTAL OF          5 INNER ITERATIONS.
    ------------------------------------------------

 NO OUTPUT CONTROL FOR STRESS PERIOD   42   TIME STEP   17
 
 SOLVING FOR HEAD 
                                                   Max.-Head-Change                         Max.-Flux-Residual
  Residual-Control   Outer-Iter.   Inner-Iter.     Column Row Layer    Maximum-Head-Change  Column Row Layer    Maximum-Flux-Residual          L2-NORM 
          0                 1           2             4    7     1      -0.1042125417E-01       4    7    1        -0.5485551810E+00      0.1233523756E+01
          0                 2           2             4    7     1       0.1013702296E-02       4    7    1         0.5485541489E-01      0.1233518444E+00
          0                 3           1             4    7     1      -0.6902938352E-04       4    7    1        -0.3839881680E-02      0.8634586850E-02

    ------------------------------------------------
       NWT REQUIRED            3 OUTER ITERATIONS 
       AND A TOTAL OF          5 INNER ITERATIONS.
    ------------------------------------------------

 NO OUTPUT CONTROL FOR STRESS PERIOD   42   TIME STEP   18
 
 SOLVING FOR HEAD 
                                                   Max.-Head-Change                         Max.-Flux-Residual
  Residual-Control   Outer-Iter.   Inner-Iter.     Column Row Layer    Maximum-Head-Change  Column Row Layer    Maximum-Flux-Residual          L2-NORM 
          0                 1           2             4    7     1      -0.1028524084E-01       4    7    1        -0.5414674879E+00      0.1213869354E+01
          0                 2           2             4    7     1       0.1000471909E-02       4    7    1         0.5414664552E-01      0.1213864245E+00
          0                 3           1             4    7     1      -0.6812844305E-04       4    7    1        -0.3790267797E-02      0.8497036052E-02

    ------------------------------------------------
       NWT REQUIRED            3 OUTER ITERATIONS 
       AND A TOTAL OF          5 INNER ITERATIONS.
    ------------------------------------------------

 NO OUTPUT CONTROL FOR STRESS PERIOD   42   TIME STEP   19
 
 SOLVING FOR HEAD 
                                                   Max.-Head-Change                         Max.-Flux-Residual
  Residual-Control   Outer-Iter.   Inner-Iter.     Column Row Layer    Maximum-Head-Change  Column Row Layer    Maximum-Flux-Residual          L2-NORM 
          0                 1           2             4    7     1      -0.1014991044E-01       4    7    1        -0.5344079546E+00      0.1194881252E+01
          0                 2           2             4    7     1       0.9873079544E-03       4    7    1         0.5344069235E-01      0.1194875965E+00
          0                 3           1             4    7     1      -0.6723202682E-04       4    7    1        -0.3740851068E-02      0.8364092875E-02

    ------------------------------------------------
       NWT REQUIRED            3 OUTER ITERATIONS 
       AND A TOTAL OF          5 INNER ITERATIONS.
    ------------------------------------------------

 NO OUTPUT CONTROL FOR STRESS PERIOD   42   TIME STEP   20
 
 SOLVING FOR HEAD 
                                                   Max.-Head-Change                         Max.-Flux-Residual
  Residual-Control   Outer-Iter.   Inner-Iter.     Column Row Layer    Maximum-Head-Change  Column Row Layer    Maximum-Flux-Residual          L2-NORM 
          0                 1           2             4    7     1      -0.1001511725E-01       4    7    1        -0.5273691878E+00      0.1176519247E+01
          0                 2           2             4    7     1       0.9741962598E-03       4    7    1         0.5273681609E-01      0.1176514013E+00
          0                 3           1             4    7     1      -0.6633916874E-04       4    7    1        -0.3691579694E-02      0.8235567916E-02

    ------------------------------------------------
       NWT REQUIRED            3 OUTER ITERATIONS 
       AND A TOTAL OF          5 INNER ITERATIONS.
    ------------------------------------------------

 NO OUTPUT CONTROL FOR STRESS PERIOD   42   TIME STEP   21
 
 SOLVING FOR HEAD 
                                                   Max.-Head-Change                         Max.-Flux-Residual
  Residual-Control   Outer-Iter.   Inner-Iter.     Column Row Layer    Maximum-Head-Change  Column Row Layer    Maximum-Flux-Residual          L2-NORM 
          0                 1           2             4    7     1      -0.9881121407E-02       4    7    1        -0.5203656005E+00      0.1158754087E+01
          0                 2           2             4    7     1       0.9611621281E-03       4    7    1         0.5203645795E-01      0.1158748873E+00
          0                 3           1             4    7     1      -0.6545159261E-04       4    7    1        -0.3642554592E-02      0.8111205129E-02

    ------------------------------------------------
       NWT REQUIRED            3 OUTER ITERATIONS 
       AND A TOTAL OF          5 INNER ITERATIONS.
    ------------------------------------------------

 NO OUTPUT CONTROL FOR STRESS PERIOD   42   TIME STEP   22
 
 SOLVING FOR HEAD 
                                                   Max.-Head-Change                         Max.-Flux-Residual
  Residual-Control   Outer-Iter.   Inner-Iter.     Column Row Layer    Maximum-Head-Change  Column Row Layer    Maximum-Flux-Residual          L2-NORM 
          0                 1           2             4    7     1      -0.9748031467E-02       4    7    1        -0.5134033580E+00      0.1141563619E+01
          0                 2           2             4    7     1       0.9482161183E-03       4    7    1         0.5134023444E-01      0.1141558607E+00
          0                 3           1             4    7     1      -0.6457001733E-04       4    7    1        -0.3593818925E-02      0.7990886822E-02

    ------------------------------------------------
       NWT REQUIRED            3 OUTER ITERATIONS 
       AND A TOTAL OF          5 INNER ITERATIONS.
    ------------------------------------------------

 NO OUTPUT CONTROL FOR STRESS PERIOD   42   TIME STEP   23
 
 SOLVING FOR HEAD 
                                                   Max.-Head-Change                         Max.-Flux-Residual
  Residual-Control   Outer-Iter.   Inner-Iter.     Column Row Layer    Maximum-Head-Change  Column Row Layer    Maximum-Flux-Residual          L2-NORM 
          0                 1           2             4    7     1      -0.9615944998E-02       4    7    1        -0.5064880882E+00      0.1124923632E+01
          0                 2           2             4    7     1       0.9353677213E-03       4    7    1         0.5064870839E-01      0.1124918637E+00
          0                 3           1             4    7     1      -0.6369508902E-04       4    7    1        -0.3545412067E-02      0.7874400302E-02

    ------------------------------------------------
       NWT REQUIRED            3 OUTER ITERATIONS 
       AND A TOTAL OF          5 INNER ITERATIONS.
    ------------------------------------------------

 NO OUTPUT CONTROL FOR STRESS PERIOD   42   TIME STEP   24
 
 SOLVING FOR HEAD 
                                                   Max.-Head-Change                         Max.-Flux-Residual
  Residual-Control   Outer-Iter.   Inner-Iter.     Column Row Layer    Maximum-Head-Change  Column Row Layer    Maximum-Flux-Residual          L2-NORM 
          0                 1           2             4    7     1      -0.9485084980E-02       4    7    1        -0.4996321718E+00      0.1108810317E+01
          0                 2           2             4    7     1       0.9226386263E-03       4    7    1         0.4996311778E-01      0.1108805379E+00
          0                 3           1             4    7     1      -0.6282828441E-04       4    7    1        -0.3497420689E-02      0.7761614351E-02

    ------------------------------------------------
       NWT REQUIRED            3 OUTER ITERATIONS 
       AND A TOTAL OF          5 INNER ITERATIONS.
    ------------------------------------------------

 NO OUTPUT CONTROL FOR STRESS PERIOD   42   TIME STEP   25
 
 SOLVING FOR HEAD 
                                                   Max.-Head-Change                         Max.-Flux-Residual
  Residual-Control   Outer-Iter.   Inner-Iter.     Column Row Layer    Maximum-Head-Change  Column Row Layer    Maximum-Flux-Residual          L2-NORM 
          0                 1           2             4    7     1      -0.9355256545E-02       4    7    1        -0.4928252043E+00      0.1093193351E+01
          0                 2           2             4    7     1       0.9100098778E-03       4    7    1         0.4928242218E-01      0.1093188517E+00
          0                 3           1             4    7     1      -0.6196831350E-04       4    7    1        -0.3449771968E-02      0.7652290225E-02

    ------------------------------------------------
       NWT REQUIRED            3 OUTER ITERATIONS 
       AND A TOTAL OF          5 INNER ITERATIONS.
    ------------------------------------------------

 NO OUTPUT CONTROL FOR STRESS PERIOD   42   TIME STEP   26
 
 SOLVING FOR HEAD 
                                                   Max.-Head-Change                         Max.-Flux-Residual
  Residual-Control   Outer-Iter.   Inner-Iter.     Column Row Layer    Maximum-Head-Change  Column Row Layer    Maximum-Flux-Residual          L2-NORM 
          0                 1           2             4    7     1      -0.9226670167E-02       4    7    1        -0.4860790476E+00      0.1078060261E+01
          0                 2           2             4    7     1       0.8975019491E-03       4    7    1         0.4860780776E-01      0.1078055728E+00
          0                 3           1             4    7     1      -0.6111656970E-04       4    7    1        -0.3402548931E-02      0.7546383135E-02

    ------------------------------------------------
       NWT REQUIRED            3 OUTER ITERATIONS 
       AND A TOTAL OF          5 INNER ITERATIONS.
    ------------------------------------------------

 NO OUTPUT CONTROL FOR STRESS PERIOD   42   TIME STEP   27
 
 SOLVING FOR HEAD 
                                                   Max.-Head-Change                         Max.-Flux-Residual
  Residual-Control   Outer-Iter.   Inner-Iter.     Column Row Layer    Maximum-Head-Change  Column Row Layer    Maximum-Flux-Residual          L2-NORM 
          0                 1           2             4    7     1      -0.9099523844E-02       4    7    1        -0.4794046140E+00      0.1063391363E+01
          0                 2           2             4    7     1       0.8851340999E-03       4    7    1         0.4794036576E-01      0.1063386492E+00
          0                 3           1             4    7     1      -0.6027436455E-04       4    7    1        -0.3355827958E-02      0.7443681701E-02

    ------------------------------------------------
       NWT REQUIRED            3 OUTER ITERATIONS 
       AND A TOTAL OF          5 INNER ITERATIONS.
    ------------------------------------------------

 NO OUTPUT CONTROL FOR STRESS PERIOD   42   TIME STEP   28
 
 SOLVING FOR HEAD 
                                                   Max.-Head-Change                         Max.-Flux-Residual
  Residual-Control   Outer-Iter.   Inner-Iter.     Column Row Layer    Maximum-Head-Change  Column Row Layer    Maximum-Flux-Residual          L2-NORM 
          0                 1           2             4    7     1      -0.8973598133E-02       4    7    1        -0.4727902048E+00      0.1049160921E+01
          0                 2           2             4    7     1       0.8728849837E-03       4    7    1         0.4727892627E-01      0.1049156067E+00
          0                 3           1             4    7     1      -0.5944024511E-04       4    7    1        -0.3309527153E-02      0.7344064179E-02

    ------------------------------------------------
       NWT REQUIRED            3 OUTER ITERATIONS 
       AND A TOTAL OF          5 INNER ITERATIONS.
    ------------------------------------------------

 NO OUTPUT CONTROL FOR STRESS PERIOD   42   TIME STEP   29
 
 SOLVING FOR HEAD 
                                                   Max.-Head-Change                         Max.-Flux-Residual
  Residual-Control   Outer-Iter.   Inner-Iter.     Column Row Layer    Maximum-Head-Change  Column Row Layer    Maximum-Flux-Residual          L2-NORM 
          0                 1           2             4    7     1      -0.8849223055E-02       4    7    1        -0.4662537280E+00      0.1035367444E+01
          0                 2           2             4    7     1       0.8607867033E-03       4    7    1         0.4662528008E-01      0.1035362850E+00
          0                 3           1             4    7     1      -0.5861639705E-04       4    7    1        -0.3263771899E-02      0.7247523739E-02

    ------------------------------------------------
       NWT REQUIRED            3 OUTER ITERATIONS 
       AND A TOTAL OF          5 INNER ITERATIONS.
    ------------------------------------------------

 NO OUTPUT CONTROL FOR STRESS PERIOD   42   TIME STEP   30



 STREAM LISTING     PERIOD     42   STEP       30

 LAYER ROW COL. STREAM  RCH.  FLOW INTO     FLOW TO   FLOW OUT OF   OVRLND.     DIRECT     STREAM       STREAM     STREAM     STREAM   STREAMBED  STREAMBED
                SEG.NO.  NO.  STRM. RCH.    AQUIFER    STRM. RCH.    RUNOFF     PRECIP       ET          HEAD       DEPTH      WIDTH   CONDCTNC.   GRADIENT

   1    1    1     1     1    1.9000E+01  2.1427E-01   1.8786E+01  0.000E+00  0.000E+00  0.000E+00  1.09413E+03  1.082E+00  1.166E+01  5.249E-02  1.361E+00
   1    2    2     1     2    1.8786E+01  3.3054E-01   1.8455E+01  0.000E+00  0.000E+00  0.000E+00  1.08914E+03  1.077E+00  1.158E+01  8.107E-02  1.359E+00
   1    3    3     1     3    1.8455E+01  2.8064E-01   1.8175E+01  0.000E+00  0.000E+00  0.000E+00  1.08349E+03  1.072E+00  1.149E+01  6.892E-02  1.357E+00
   1    3    4     1     4    1.8175E+01  2.5740E-01   1.7917E+01  0.000E+00  0.000E+00  0.000E+00  1.07848E+03  1.068E+00  1.140E+01  6.328E-02  1.356E+00
   1    4    5     2     1    1.5917E+01  3.0542E-01   1.5612E+01  0.000E+00  0.000E+00  0.000E+00  1.07285E+03  9.157E-01  1.200E+01  7.800E-02  1.305E+00
   1    5    6     2     2    1.5612E+01  2.3438E-01   1.5377E+01  0.000E+00  0.000E+00  0.000E+00  1.06742E+03  9.063E-01  1.200E+01  6.000E-02  1.302E+00
   1    6    6     2     3    1.5377E+01  2.3388E-01   1.5143E+01  0.000E+00  0.000E+00  0.000E+00  1.06269E+03  8.980E-01  1.200E+01  6.000E-02  1.299E+00
   1    7    6     2     4    1.5143E+01  2.3338E-01   1.4910E+01  0.000E+00  0.000E+00  0.000E+00  1.05797E+03  8.897E-01  1.200E+01  6.000E-02  1.297E+00
   1    8    6     2     5    1.4910E+01  2.3289E-01   1.4677E+01  0.000E+00  0.000E+00  0.000E+00  1.05324E+03  8.814E-01  1.200E+01  6.000E-02  1.294E+00
   1    3    5     3     1    2.0000E+00  2.8252E-01   1.7175E+00  0.000E+00  0.000E+00  0.000E+00  1.07555E+03  1.909E+00  9.636E+00  7.227E-02  1.955E+00
   1    3    6     3     2    1.7175E+00  2.4905E-01   1.4684E+00  0.000E+00  0.000E+00  0.000E+00  1.07264E+03  1.727E+00  8.909E+00  6.682E-02  1.864E+00
   1    3    7     3     3    1.4684E+00  1.9718E-01   1.2712E+00  0.000E+00  0.000E+00  0.000E+00  1.06987E+03  1.555E+00  8.218E+00  5.547E-02  1.777E+00
   1    4    8     3     4    1.2712E+00  2.2567E-01   1.0456E+00  0.000E+00  0.000E+00  0.000E+00  1.06682E+03  1.364E+00  7.455E+00  6.709E-02  1.682E+00
   1    5    8     3     5    1.0456E+00  1.5790E-01   8.8768E-01  0.000E+00  0.000E+00  0.000E+00  1.06362E+03  1.164E+00  6.655E+00  4.991E-02  1.582E+00
   1    6    8     3     6    8.8768E-01  5.5980E-02   8.3170E-01  0.000E+00  0.000E+00  0.000E+00  1.06158E+03  1.036E+00  6.145E+00  1.844E-02  1.518E+00
   1    5   10     4     1    1.0000E+01  9.0919E-02   9.9091E+00  0.000E+00  0.000E+00  0.000E+00  1.07836E+03  6.368E-01  1.000E+01  2.500E-02  1.212E+00
   1    5    9     4     2    9.9091E+00  1.8158E-01   9.7275E+00  0.000E+00  0.000E+00  0.000E+00  1.07154E+03  6.315E-01  1.000E+01  5.000E-02  1.211E+00
   1    6    8     4     3    9.7275E+00  1.2689E-01   9.6006E+00  0.000E+00  0.000E+00  0.000E+00  1.06381E+03  6.256E-01  1.000E+01  3.500E-02  1.209E+00
   1    6    8     5     1    1.0432E+01  2.2686E-01   1.0205E+01  0.000E+00  0.000E+00  0.000E+00  1.05868E+03  6.790E-01  1.542E+01  6.166E-02  1.226E+00
   1    7    7     5     2    1.0205E+01  2.7894E-01   9.9265E+00  0.000E+00  0.000E+00  0.000E+00  1.05417E+03  6.732E-01  1.519E+01  7.594E-02  1.224E+00
   1    8    7     5     3    9.9265E+00  1.9221E-01   9.7343E+00  0.000E+00  0.000E+00  0.000E+00  1.04992E+03  6.676E-01  1.497E+01  5.241E-02  1.223E+00
   1    8    6     5     4    9.7343E+00  1.3577E-01   9.5985E+00  0.000E+00  0.000E+00  0.000E+00  1.04691E+03  6.637E-01  1.482E+01  3.706E-02  1.221E+00
   1    9    6     6     1    2.4276E+01  2.5176E-01   2.4024E+01  0.000E+00  0.000E+00  0.000E+00  1.04392E+03  1.196E+00  1.200E+01  6.000E-02  1.399E+00
   1   10    7     6     2    2.4024E+01  2.5131E-01   2.3773E+01  0.000E+00  0.000E+00  0.000E+00  1.03937E+03  1.188E+00  1.200E+01  6.000E-02  1.396E+00
   1   11    7     6     3    2.3773E+01  2.5086E-01   2.3522E+01  0.000E+00  0.000E+00  0.000E+00  1.03482E+03  1.181E+00  1.200E+01  6.000E-02  1.394E+00
   1   12    7     6     4    2.3522E+01  2.5041E-01   2.3271E+01  0.000E+00  0.000E+00  0.000E+00  1.03026E+03  1.173E+00  1.200E+01  6.000E-02  1.391E+00
   1   13    7     6     5    2.3271E+01  1.0821E-02   2.3261E+01  0.000E+00  0.000E+00  0.000E+00  1.02708E+03  1.170E+00  1.200E+01  2.400E-02  1.503E-01
   1   14    9     7     1    1.5000E+02  1.3694E+00   1.4863E+02  0.000E+00  0.000E+00  0.000E+00  1.03987E+03  2.288E+00  5.529E+01  5.593E-01  8.161E-01
   1   13    8     7     2    1.4863E+02  1.9672E+00   1.4666E+02  0.000E+00  0.000E+00  0.000E+00  1.03478E+03  2.279E+00  5.525E+01  6.147E-01  1.067E+00
   1   13    7     7     3    1.4666E+02  1.7090E+00   1.4495E+02  0.000E+00  0.000E+00  0.000E+00  1.02969E+03  2.269E+00  5.521E+01  5.584E-01  1.020E+00
   1   13    6     8     1    1.6822E+02  1.1436E+00   1.6707E+02  0.000E+00  0.000E+00  0.000E+00  1.02481E+03  2.937E+00  4.258E+01  4.339E-01  8.785E-01
   1   13    5     8     2    1.6707E+02  3.8001E-01   1.6669E+02  0.000E+00  0.000E+00  0.000E+00  1.01856E+03  2.932E+00  4.251E+01  4.332E-01  2.924E-01
   1   13    4     8     3    1.6669E+02 -1.7546E+00   1.6845E+02  0.000E+00  0.000E+00  0.000E+00  1.01231E+03  2.936E+00  4.258E+01  4.339E+00 -1.348E-01
   1   13    3     8     4    1.6845E+02 -3.3126E+00   1.7176E+02  0.000E+00  0.000E+00  0.000E+00  1.00608E+03  2.953E+00  4.282E+01  4.363E+00 -2.531E-01
   1   13    2     8     5    1.7176E+02 -2.4937E+00   1.7425E+02  0.000E+00  0.000E+00  0.000E+00  9.99847E+02  2.972E+00  4.309E+01  4.391E+00 -1.893E-01
   1   13    1     8     6    1.7425E+02 -1.9608E+00   1.7621E+02  0.000E+00  0.000E+00  0.000E+00  9.94861E+02  2.986E+00  4.330E+01  2.647E+00 -2.469E-01





UNSATURATED ZONE PACKAGE VOLUMETRIC BUDGET FOR  TIME STEP    30 STRESS PERIOD   42
  ------------------------------------------------------------------------------



     CUMULATIVE VOLUMES      L**3       RATES FOR THIS TIME STEP      L**3/T
     ------------------                 ------------------------

           IN:                                      IN:
           ---                                      ---
        INFILTRATION =  1426015570.4885          INFILTRATION =           8.3175

          OUT:                                     OUT:
          ----                                     ----
              UZF ET =  1312161468.6243                UZF ET =           8.3175
        UZF RECHARGE =   113780005.8640          UZF RECHARGE =       0.0000E+00

            IN - OUT =       74096.0002              IN - OUT =       0.0000E+00

          STORAGE:                                 STORAGE:
          --------                                 --------
      STORAGE CHANGE =       74101.9870        STORAGE CHANGE =       8.4823E-15

 PERCENT DISCREPANCY IS DIFFERENCE BETWEEN IN-OUT MINUS CHANGE IN STORAGE
 DIVIDED BY THE AVERAGE OF IN AND OUT TIMES 100

 PERCENT DISCREPANCY =           0.00     PERCENT DISCREPANCY =           0.00






1
  VOLUMETRIC BUDGET FOR AGRICULTURAL FIELDS AT  END OF TIME STEP   30, STRESS PERIOD  42
  ------------------------------------------------------------------------------

     CUMULATIVE VOLUMES      L**3       RATES FOR THIS TIME STEP      L**3/T
     ------------------                 ------------------------

           IN:                                      IN:
           ---                                      ---
               AG WELLS  =  1334556288.0000                 AG WELLS  =           7.4700
      DIVERSION SEGMENTS =           0.0000        DIVERSION SEGMENTS =           0.0000
           GW IRRIGATION =           0.0000             GW IRRIGATION =           0.0000
           SW IRRIGATION =           0.0000             SW IRRIGATION =           0.0000
        SYSTEM LOSSES GW =           0.0000          SYSTEM LOSSES GW =           0.0000
        SYSTEM LOSSES SW =           0.0000          SYSTEM LOSSES SW =           0.0000

                TOTAL IN =  1334556288.0000                  TOTAL IN =           7.4700

          OUT:                                     OUT:
          ----                                     ----
               AG WELLS  =           0.0000                 AG WELLS  =           0.0000
      DIVERSION SEGMENTS =           0.0000        DIVERSION SEGMENTS =           0.0000
           GW IRRIGATION =  1334556288.0000             GW IRRIGATION =           7.4700
           SW IRRIGATION =           0.0000             SW IRRIGATION =           0.0000
        SYSTEM LOSSES GW =           0.0000          SYSTEM LOSSES GW =           0.0000
        SYSTEM LOSSES SW =           0.0000          SYSTEM LOSSES SW =           0.0000

               TOTAL OUT =  1334556288.0000                 TOTAL OUT =           7.4700

                IN - OUT =           0.0000                  IN - OUT =           0.0000

     PERCENT DISCREPANCY =           0.00         PERCENT DISCREPANCY =           0.00



1
  VOLUMETRIC BUDGET FOR ENTIRE MODEL AT END OF TIME STEP   30, STRESS PERIOD  42
  ------------------------------------------------------------------------------

     CUMULATIVE VOLUMES      L**3       RATES FOR THIS TIME STEP      L**3/T
     ------------------                 ------------------------

           IN:                                      IN:
           ---                                      ---
             STORAGE     =  1797645184.0000               STORAGE     =           5.4892
       CONSTANT HEAD     =           0.0000         CONSTANT HEAD     =           0.0000
     HEAD DEP BOUNDS     =    30872008.0000       HEAD DEP BOUNDS     =           0.2880
      STREAM LEAKAGE     =  1321622912.0000        STREAM LEAKAGE     =          12.3085
        UZF RECHARGE     =   113780112.0000          UZF RECHARGE     =           0.0000
               GW ET     =           0.0000                 GW ET     =           0.0000
     SURFACE LEAKAGE     =           0.0000       SURFACE LEAKAGE     =           0.0000
           AG WELLS      =           0.0000             AG WELLS      =           0.0000

                TOTAL IN =  3263920384.0000                  TOTAL IN =          18.0858

          OUT:                                     OUT:
          ----                                     ----
             STORAGE     =   782678208.0000               STORAGE     =           0.8038
       CONSTANT HEAD     =           0.0000         CONSTANT HEAD     =           0.0000
     HEAD DEP BOUNDS     =    31512562.0000       HEAD DEP BOUNDS     =           0.2889
      STREAM LEAKAGE     =  1097554432.0000        STREAM LEAKAGE     =           9.5217
        UZF RECHARGE     =           0.0000          UZF RECHARGE     =           0.0000
               GW ET     =    17607600.0000                 GW ET     =           0.0000
     SURFACE LEAKAGE     =           0.0000       SURFACE LEAKAGE     =           0.0000
           AG WELLS      =  1334556288.0000             AG WELLS      =           7.4700

               TOTAL OUT =  3263909120.0000                 TOTAL OUT =          18.0844

                IN - OUT =       11264.0000                  IN - OUT =       1.3466E-03

     PERCENT DISCREPANCY =           0.00         PERCENT DISCREPANCY =           0.01






         TIME SUMMARY AT END OF TIME STEP   30 IN STRESS PERIOD   42
                    SECONDS     MINUTES      HOURS       DAYS        YEARS
                    -----------------------------------------------------------
   TIME STEP LENGTH  87667.      1461.1      24.352      1.0147     2.77799E-03
 STRESS PERIOD TIME 2.63000E+06  43833.      730.56      30.440     8.33397E-02
         TOTAL TIME 1.07916E+08 1.79859E+06  29977.      1249.0      3.4196    
1
1
                            STRESS PERIOD NO.   43, LENGTH =   2630000.    
                            -----------------------------------------------

                              NUMBER OF TIME STEPS =    30

                               MULTIPLIER FOR DELT =     1.000

                            INITIAL TIME STEP SIZE =   87666.66    

 REUSING NON-PARAMETER GHB CELLS FROM LAST STRESS PERIOD

      2 GHB CELLS

 REUSING STREAM SEGMENT DATA FROM LAST STRESS PERIOD



            AREAL INFILTRATION RATE
 READING ON UNIT   19 WITH FORMAT: (FREE)              

            1           2           3           4           5           6           7           8           9          10
 ........................................................................................................................
   1   1.0000E-10  2.0000E-10   0.000       0.000       0.000       0.000       0.000       0.000       0.000       0.000    
   2   2.0000E-10  1.0000E-10  2.0000E-10   0.000       0.000      8.0000E-10  8.0000E-10  5.0000E-10   0.000       0.000    
   3    0.000      5.0000E-10  1.0000E-10  1.0000E-10  8.0000E-10  8.0000E-10  5.0000E-10  5.0000E-10   0.000       0.000    
   4   8.0000E-10  5.0000E-10  1.0000E-10  1.0000E-10  1.0000E-10  1.0000E-10  1.0000E-10  1.0000E-10  2.0000E-10   0.000    
   5   8.0000E-10  5.0000E-10  1.0000E-10  1.0000E-10  1.0000E-10  1.0000E-10  1.0000E-10  1.0000E-10  1.0000E-10  1.0000E-10
   6   8.0000E-10  5.0000E-10  5.0000E-10  2.0000E-10  2.0000E-10  1.0000E-10  1.0000E-10  1.0000E-10  1.0000E-10  5.0000E-10
   7   8.0000E-10  5.0000E-10  5.0000E-10  2.0000E-10  2.0000E-10  1.0000E-10  1.0000E-10  2.0000E-10  2.0000E-10   0.000    
   8    0.000      5.0000E-10  5.0000E-10  2.0000E-10  2.0000E-10  1.0000E-10  1.0000E-10  2.0000E-10  5.0000E-10   0.000    
   9    0.000      5.0000E-10  5.0000E-10  2.0000E-10  2.0000E-10  1.0000E-10  1.0000E-10  2.0000E-10  5.0000E-10   0.000    
  10    0.000      5.0000E-10  5.0000E-10  2.0000E-10  2.0000E-10  1.0000E-10  1.0000E-10  2.0000E-10  5.0000E-10  8.0000E-10
  11    0.000      1.0000E-10  1.0000E-10  1.0000E-10  1.0000E-10  1.0000E-10  1.0000E-10  2.0000E-10  5.0000E-10   0.000    
  12   1.0000E-10  1.0000E-10  1.0000E-10  1.0000E-10  1.0000E-10  1.0000E-10  1.0000E-10  1.0000E-10  2.0000E-10   0.000    
  13   1.0000E-10  1.0000E-10  2.0000E-10  2.0000E-10  2.0000E-10  2.0000E-10  2.0000E-10  1.0000E-10  1.0000E-10   0.000    
  14    0.000      2.0000E-10  5.0000E-10  5.0000E-10  5.0000E-10  5.0000E-10  5.0000E-10  2.0000E-10  1.0000E-10   0.000    
  15    0.000       0.000      8.0000E-10  8.0000E-10  8.0000E-10  8.0000E-10   0.000       0.000       0.000       0.000    

                  ET RATE =  1.500000E-07

 USING ET EXTINCTION DEPTH FROM PREVIOUS STRESS PERIOD. CURRENT PERIOD IS:      43

 USING EXTINCTION WATER CONTENT FROM PREVIOUS STRESS PERIOD. CURRENT PERIOD IS:      43

 USING AIR ENTRY PRESSURE FROM PREVIOUS STRESS PERIOD. CURRENT PERIOD IS:      43

 USING ROOT PRESSURE HEAD FROM PREVIOUS STRESS PERIOD. CURRENT PERIOD IS:      43

 USING ROOT ACTIVITY FROM PREVIOUS STRESS PERIOD. CURRENT PERIOD IS:      43

 PROCESSING AG STRESS PERIOD DATA

 READING AG STRESS PERIOD DATA

 READING IRRIGATION WELL

 END PROCESSING AG STRESS PERIOD DATA OPTIONS
 
 SOLVING FOR HEAD 
                                                   Max.-Head-Change                         Max.-Flux-Residual
  Residual-Control   Outer-Iter.   Inner-Iter.     Column Row Layer    Maximum-Head-Change  Column Row Layer    Maximum-Flux-Residual          L2-NORM 
          0                 1           2             4    7     1      -0.5661182582E-01       4    7    1        -0.2959790450E+01      0.7025379383E+01
          0                 2           2             4    7     1       0.5506756760E-02       4    7    1         0.2959771751E+00      0.7025305430E+00
          0                 3           2             4    7     1      -0.3749899718E-03       4    7    1        -0.2071842663E-01      0.4917721788E-01
          0                 4           1             4    7     1       0.1492120060E-04       4    7    1         0.8473847579E-03      0.2011349436E-02

    ------------------------------------------------
       NWT REQUIRED            4 OUTER ITERATIONS 
       AND A TOTAL OF          7 INNER ITERATIONS.
    ------------------------------------------------

 NO OUTPUT CONTROL FOR STRESS PERIOD   43   TIME STEP    1
 
 SOLVING FOR HEAD 
                                                   Max.-Head-Change                         Max.-Flux-Residual
  Residual-Control   Outer-Iter.   Inner-Iter.     Column Row Layer    Maximum-Head-Change  Column Row Layer    Maximum-Flux-Residual          L2-NORM 
          0                 1           2             4    7     1      -0.5623943674E-01       4    7    1        -0.2941455790E+01      0.6901587386E+01
          0                 2           2             4    7     1       0.5470531104E-02       4    7    1         0.2941435459E+00      0.6901515613E+00
          0                 3           2             4    7     1      -0.3725231624E-03       4    7    1        -0.2059007409E-01      0.4831071023E-01
          0                 4           1             4    7     1       0.1482304396E-04       4    7    1         0.8421351367E-03      0.1975910500E-02

    ------------------------------------------------
       NWT REQUIRED            4 OUTER ITERATIONS 
       AND A TOTAL OF          7 INNER ITERATIONS.
    ------------------------------------------------

 NO OUTPUT CONTROL FOR STRESS PERIOD   43   TIME STEP    2
 
 SOLVING FOR HEAD 
                                                   Max.-Head-Change                         Max.-Flux-Residual
  Residual-Control   Outer-Iter.   Inner-Iter.     Column Row Layer    Maximum-Head-Change  Column Row Layer    Maximum-Flux-Residual          L2-NORM 
          0                 1           2             4    7     1      -0.5584943320E-01       4    7    1        -0.2922110462E+01      0.6783642722E+01
          0                 2           2             4    7     1       0.5432592314E-02       4    7    1         0.2922088682E+00      0.6783573397E+00
          0                 3           2             4    7     1      -0.3699396915E-03       4    7    1        -0.2045464796E-01      0.4748508959E-01
          0                 4           1             4    7     1       0.1472024526E-04       4    7    1         0.8365961842E-03      0.1942142389E-02

    ------------------------------------------------
       NWT REQUIRED            4 OUTER ITERATIONS 
       AND A TOTAL OF          7 INNER ITERATIONS.
    ------------------------------------------------

 NO OUTPUT CONTROL FOR STRESS PERIOD   43   TIME STEP    3
 
 SOLVING FOR HEAD 
                                                   Max.-Head-Change                         Max.-Flux-Residual
  Residual-Control   Outer-Iter.   Inner-Iter.     Column Row Layer    Maximum-Head-Change  Column Row Layer    Maximum-Flux-Residual          L2-NORM 
          0                 1           2             4    7     1      -0.5544345017E-01       4    7    1        -0.2901844516E+01      0.6671115129E+01
          0                 2           2             4    7     1       0.5393099406E-02       4    7    1         0.2901821459E+00      0.6671047952E+00
          0                 3           2             4    7     1      -0.3672503885E-03       4    7    1        -0.2031277854E-01      0.4669740838E-01
          0                 4           1             4    7     1       0.1461323519E-04       4    7    1         0.8307936937E-03      0.1909925701E-02

    ------------------------------------------------
       NWT REQUIRED            4 OUTER ITERATIONS 
       AND A TOTAL OF          7 INNER ITERATIONS.
    ------------------------------------------------

 NO OUTPUT CONTROL FOR STRESS PERIOD   43   TIME STEP    4
 
 SOLVING FOR HEAD 
                                                   Max.-Head-Change                         Max.-Flux-Residual
  Residual-Control   Outer-Iter.   Inner-Iter.     Column Row Layer    Maximum-Head-Change  Column Row Layer    Maximum-Flux-Residual          L2-NORM 
          0                 1           2             4    7     1      -0.5502316176E-01       4    7    1        -0.2880750048E+01      0.6563632417E+01
          0                 2           2             4    7     1       0.5352215207E-02       4    7    1         0.2880725870E+00      0.6563567296E+00
          0                 3           2             4    7     1      -0.3644663421E-03       4    7    1        -0.2016511042E-01      0.4594504013E-01
          0                 4           1             4    7     1       0.1450245550E-04       4    7    1         0.8247540777E-03      0.1879154465E-02

    ------------------------------------------------
       NWT REQUIRED            4 OUTER ITERATIONS 
       AND A TOTAL OF          7 INNER ITERATIONS.
    ------------------------------------------------

 NO OUTPUT CONTROL FOR STRESS PERIOD   43   TIME STEP    5
 
 SOLVING FOR HEAD 
                                                   Max.-Head-Change                         Max.-Flux-Residual
  Residual-Control   Outer-Iter.   Inner-Iter.     Column Row Layer    Maximum-Head-Change  Column Row Layer    Maximum-Flux-Residual          L2-NORM 
          0                 1           2             4    7     1      -0.5459000527E-01       4    7    1        -0.2858906542E+01      0.6460838385E+01
          0                 2           2             4    7     1       0.5310088997E-02       4    7    1         0.2858881390E+00      0.6465822832E+00
          0                 3           2             4    7     1      -0.3615977083E-03       4    7    1        -0.2001219993E-01      0.4526080108E-01
          0                 4           1             4    7     1       0.1438830948E-04       4    7    1         0.8185000197E-03      0.1851166401E-02

    ------------------------------------------------
       NWT REQUIRED            4 OUTER ITERATIONS 
       AND A TOTAL OF          7 INNER ITERATIONS.
    ------------------------------------------------

 NO OUTPUT CONTROL FOR STRESS PERIOD   43   TIME STEP    6
 
 SOLVING FOR HEAD 
                                                   Max.-Head-Change                         Max.-Flux-Residual
  Residual-Control   Outer-Iter.   Inner-Iter.     Column Row Layer    Maximum-Head-Change  Column Row Layer    Maximum-Flux-Residual          L2-NORM 
          0                 1           2             4    7     1      -0.5414555192E-01       4    7    1        -0.2836402650E+01      0.6362017677E+01
          0                 2           2             4    7     1       0.5266845963E-02       4    7    1         0.2836376657E+00      0.6361982583E+00
          0                 3           2             4    7     1      -0.3586530300E-03       4    7    1        -0.1985466752E-01      0.4453392051E-01
          0                 4           1             4    7     1       0.1427113790E-04       4    7    1         0.8120569239E-03      0.1821440427E-02

    ------------------------------------------------
       NWT REQUIRED            4 OUTER ITERATIONS 
       AND A TOTAL OF          7 INNER ITERATIONS.
    ------------------------------------------------

 NO OUTPUT CONTROL FOR STRESS PERIOD   43   TIME STEP    7
 
 SOLVING FOR HEAD 
                                                   Max.-Head-Change                         Max.-Flux-Residual
  Residual-Control   Outer-Iter.   Inner-Iter.     Column Row Layer    Maximum-Head-Change  Column Row Layer    Maximum-Flux-Residual          L2-NORM 
          0                 1           2             4    7     1      -0.5369120062E-01       4    7    1        -0.2813313997E+01      0.6266999891E+01
          0                 2           2             4    7     1       0.5222648916E-02       4    7    1         0.2813287286E+00      0.6266964615E+00
          0                 3           2             4    7     1      -0.3556433854E-03       4    7    1        -0.1969304253E-01      0.4386879401E-01
          0                 4           1             4    7     1       0.1415138137E-04       4    7    1         0.8054464574E-03      0.1794235403E-02

    ------------------------------------------------
       NWT REQUIRED            4 OUTER ITERATIONS 
       AND A TOTAL OF          7 INNER ITERATIONS.
    ------------------------------------------------

 NO OUTPUT CONTROL FOR STRESS PERIOD   43   TIME STEP    8
 
 SOLVING FOR HEAD 
                                                   Max.-Head-Change                         Max.-Flux-Residual
  Residual-Control   Outer-Iter.   Inner-Iter.     Column Row Layer    Maximum-Head-Change  Column Row Layer    Maximum-Flux-Residual          L2-NORM 
          0                 1           2             4    7     1      -0.5322795473E-01       4    7    1        -0.2789697062E+01      0.6175875424E+01
          0                 2           2             4    7     1       0.5177586837E-02       4    7    1         0.2789669746E+00      0.6175840068E+00
          0                 3           2             4    7     1      -0.3525748335E-03       4    7    1        -0.1952772025E-01      0.4323092108E-01
          0                 4           1             4    7     1       0.1402928060E-04       4    7    1         0.7986847565E-03      0.1768148224E-02

    ------------------------------------------------
       NWT REQUIRED            4 OUTER ITERATIONS 
       AND A TOTAL OF          7 INNER ITERATIONS.
    ------------------------------------------------

 NO OUTPUT CONTROL FOR STRESS PERIOD   43   TIME STEP    9
 
 SOLVING FOR HEAD 
                                                   Max.-Head-Change                         Max.-Flux-Residual
  Residual-Control   Outer-Iter.   Inner-Iter.     Column Row Layer    Maximum-Head-Change  Column Row Layer    Maximum-Flux-Residual          L2-NORM 
          0                 1           2             4    7     1      -0.5275729958E-01       4    7    1        -0.2765633584E+01      0.6088392580E+01
          0                 2           2             4    7     1       0.5131804194E-02       4    7    1         0.2765605768E+00      0.6088357218E+00
          0                 3           2             4    7     1      -0.3494572119E-03       4    7    1        -0.1935927279E-01      0.4261854176E-01
          0                 4           1             4    7     1       0.1390522751E-04       4    7    1         0.7917952378E-03      0.1743098240E-02

    ------------------------------------------------
       NWT REQUIRED            4 OUTER ITERATIONS 
       AND A TOTAL OF          7 INNER ITERATIONS.
    ------------------------------------------------

 NO OUTPUT CONTROL FOR STRESS PERIOD   43   TIME STEP   10
 
 SOLVING FOR HEAD 
                                                   Max.-Head-Change                         Max.-Flux-Residual
  Residual-Control   Outer-Iter.   Inner-Iter.     Column Row Layer    Maximum-Head-Change  Column Row Layer    Maximum-Flux-Residual          L2-NORM 
          0                 1           2             4    7     1      -0.5228021647E-01       4    7    1        -0.2741178637E+01      0.6004312853E+01
          0                 2           2             4    7     1       0.5085396426E-02       4    7    1         0.2741150415E+00      0.6004277608E+00
          0                 3           2             4    7     1      -0.3462970213E-03       4    7    1        -0.1918808565E-01      0.4202998440E-01
          0                 4           1             4    7     1       0.1377948100E-04       4    7    1         0.7847936806E-03      0.1719029772E-02

    ------------------------------------------------
       NWT REQUIRED            4 OUTER ITERATIONS 
       AND A TOTAL OF          7 INNER ITERATIONS.
    ------------------------------------------------

 NO OUTPUT CONTROL FOR STRESS PERIOD   43   TIME STEP   11
 
 SOLVING FOR HEAD 
                                                   Max.-Head-Change                         Max.-Flux-Residual
  Residual-Control   Outer-Iter.   Inner-Iter.     Column Row Layer    Maximum-Head-Change  Column Row Layer    Maximum-Flux-Residual          L2-NORM 
          0                 1           2             4    7     1      -0.5179776559E-01       4    7    1        -0.2716390414E+01      0.5923441883E+01
          0                 2           2             4    7     1       0.5038466652E-02       4    7    1         0.2716361874E+00      0.5923406773E+00
          0                 3           2             4    7     1      -0.3431012820E-03       4    7    1        -0.1901456607E-01      0.4146388796E-01
          0                 4           1             4    7     1       0.1365231945E-04       4    7    1         0.7776967341E-03      0.1695874402E-02

    ------------------------------------------------
       NWT REQUIRED            4 OUTER ITERATIONS 
       AND A TOTAL OF          7 INNER ITERATIONS.
    ------------------------------------------------

 NO OUTPUT CONTROL FOR STRESS PERIOD   43   TIME STEP   12
 
 SOLVING FOR HEAD 
                                                   Max.-Head-Change                         Max.-Flux-Residual
  Residual-Control   Outer-Iter.   Inner-Iter.     Column Row Layer    Maximum-Head-Change  Column Row Layer    Maximum-Flux-Residual          L2-NORM 
          0                 1           2             4    7     1      -0.5131079341E-01       4    7    1        -0.2691316576E+01      0.5845572910E+01
          0                 2           2             4    7     1       0.4991097195E-02       4    7    1         0.2691287798E+00      0.5845537995E+00
          0                 3           2             4    7     1      -0.3398756012E-03       4    7    1        -0.1883904771E-01      0.4091880256E-01
          0                 4           1             4    7     1       0.1352396668E-04       4    7    1         0.7705180160E-03      0.1673581225E-02

    ------------------------------------------------
       NWT REQUIRED            4 OUTER ITERATIONS 
       AND A TOTAL OF          7 INNER ITERATIONS.
    ------------------------------------------------

 NO OUTPUT CONTROL FOR STRESS PERIOD   43   TIME STEP   13
 
 SOLVING FOR HEAD 
                                                   Max.-Head-Change                         Max.-Flux-Residual
  Residual-Control   Outer-Iter.   Inner-Iter.     Column Row Layer    Maximum-Head-Change  Column Row Layer    Maximum-Flux-Residual          L2-NORM 
          0                 1           2             4    7     1      -0.5082034875E-01       4    7    1        -0.2666015634E+01      0.5770525826E+01
          0                 2           2             4    7     1       0.4943390068E-02       4    7    1         0.2665986691E+00      0.5770491215E+00
          0                 3           2             4    7     1      -0.3366269248E-03       4    7    1        -0.1866194003E-01      0.4039348085E-01
          0                 4           1             4    7     1       0.1339469831E-04       4    7    1         0.7632742922E-03      0.1652095616E-02

    ------------------------------------------------
       NWT REQUIRED            4 OUTER ITERATIONS 
       AND A TOTAL OF          7 INNER ITERATIONS.
    ------------------------------------------------

 NO OUTPUT CONTROL FOR STRESS PERIOD   43   TIME STEP   14
 
 SOLVING FOR HEAD 
                                                   Max.-Head-Change                         Max.-Flux-Residual
  Residual-Control   Outer-Iter.   Inner-Iter.     Column Row Layer    Maximum-Head-Change  Column Row Layer    Maximum-Flux-Residual          L2-NORM 
          0                 1           2             4    7     1      -0.5032728069E-01       4    7    1        -0.2640534657E+01      0.5698146008E+01
          0                 2           2             4    7     1       0.4895427853E-02       4    7    1         0.2640505614E+00      0.5698111683E+00
          0                 3           2             4    7     1      -0.3333608768E-03       4    7    1        -0.1848357249E-01      0.3988682064E-01
          0                 4           1             4    7     1       0.1326473951E-04       4    7    1         0.7559790536E-03      0.1631374771E-02

    ------------------------------------------------
       NWT REQUIRED            4 OUTER ITERATIONS 
       AND A TOTAL OF          7 INNER ITERATIONS.
    ------------------------------------------------

 NO OUTPUT CONTROL FOR STRESS PERIOD   43   TIME STEP   15
 
 SOLVING FOR HEAD 
                                                   Max.-Head-Change                         Max.-Flux-Residual
  Residual-Control   Outer-Iter.   Inner-Iter.     Column Row Layer    Maximum-Head-Change  Column Row Layer    Maximum-Flux-Residual          L2-NORM 
          0                 1           2             4    7     1      -0.4983237814E-01       4    7    1        -0.2614917672E+01      0.5628284548E+01
          0                 2           2             4    7     1       0.4847287281E-02       4    7    1         0.2614888588E+00      0.5628250544E+00
          0                 3           2             4    7     1      -0.3300826833E-03       4    7    1        -0.1830425329E-01      0.3939779331E-01
          0                 4           1             4    7     1       0.1313429729E-04       4    7    1         0.7486448953E-03      0.1611372353E-02

    ------------------------------------------------
       NWT REQUIRED            4 OUTER ITERATIONS 
       AND A TOTAL OF          7 INNER ITERATIONS.
    ------------------------------------------------

 NO OUTPUT CONTROL FOR STRESS PERIOD   43   TIME STEP   16
 
 SOLVING FOR HEAD 
                                                   Max.-Head-Change                         Max.-Flux-Residual
  Residual-Control   Outer-Iter.   Inner-Iter.     Column Row Layer    Maximum-Head-Change  Column Row Layer    Maximum-Flux-Residual          L2-NORM 
          0                 1           2             4    7     1      -0.4933623269E-01       4    7    1        -0.2589198273E+01      0.5560794301E+01
          0                 2           2             4    7     1       0.4799025888E-02       4    7    1         0.2589169204E+00      0.5560760681E+00
          0                 3           2             4    7     1      -0.3267962608E-03       4    7    1        -0.1812421751E-01      0.3892536200E-01
          0                 4           1             4    7     1       0.1300352730E-04       4    7    1         0.7412814109E-03      0.1592078039E-02

    ------------------------------------------------
       NWT REQUIRED            4 OUTER ITERATIONS 
       AND A TOTAL OF          7 INNER ITERATIONS.
    ------------------------------------------------

 NO OUTPUT CONTROL FOR STRESS PERIOD   43   TIME STEP   17
 
 SOLVING FOR HEAD 
                                                   Max.-Head-Change                         Max.-Flux-Residual
  Residual-Control   Outer-Iter.   Inner-Iter.     Column Row Layer    Maximum-Head-Change  Column Row Layer    Maximum-Flux-Residual          L2-NORM 
          0                 1           2             4    7     1      -0.4883965661E-01       4    7    1        -0.2563421751E+01      0.5495554802E+01
          0                 2           2             4    7     1       0.4750722679E-02       4    7    1         0.2563392746E+00      0.5495521587E+00
          0                 3           2             4    7     1      -0.3235069905E-03       4    7    1        -0.1794378217E-01      0.3846868944E-01
          0                 4           1             4    7     1       0.1287264437E-04       4    7    1         0.7339016024E-03      0.1573371602E-02

    ------------------------------------------------
       NWT REQUIRED            4 OUTER ITERATIONS 
       AND A TOTAL OF          7 INNER ITERATIONS.
    ------------------------------------------------

 NO OUTPUT CONTROL FOR STRESS PERIOD   43   TIME STEP   18
 
 SOLVING FOR HEAD 
                                                   Max.-Head-Change                         Max.-Flux-Residual
  Residual-Control   Outer-Iter.   Inner-Iter.     Column Row Layer    Maximum-Head-Change  Column Row Layer    Maximum-Flux-Residual          L2-NORM 
          0                 1           2             4    7     1      -0.4834313200E-01       4    7    1        -0.2537615609E+01      0.5432434689E+01
          0                 2           2             4    7     1       0.4702424541E-02       4    7    1         0.2537586710E+00      0.5432401854E+00
          0                 3           2             4    7     1      -0.3202180647E-03       4    7    1        -0.1776313974E-01      0.3802684710E-01
          0                 4           1             4    7     1       0.1274177457E-04       4    7    1         0.7265133090E-03      0.1555299697E-02

    ------------------------------------------------
       NWT REQUIRED            4 OUTER ITERATIONS 
       AND A TOTAL OF          7 INNER ITERATIONS.
    ------------------------------------------------

 NO OUTPUT CONTROL FOR STRESS PERIOD   43   TIME STEP   19
 
 SOLVING FOR HEAD 
                                                   Max.-Head-Change                         Max.-Flux-Residual
  Residual-Control   Outer-Iter.   Inner-Iter.     Column Row Layer    Maximum-Head-Change  Column Row Layer    Maximum-Flux-Residual          L2-NORM 
          0                 1           2             4    7     1      -0.4784737602E-01       4    7    1        -0.2511819454E+01      0.5371339295E+01
          0                 2           2             4    7     1       0.4654201228E-02       4    7    1         0.2511790702E+00      0.5371306920E+00
          0                 3           2             4    7     1      -0.3169342335E-03       4    7    1        -0.1758256745E-01      0.3759918612E-01
          0                 4           1             4    7     1       0.1261110831E-04       4    7    1         0.7191279035E-03      0.1537809015E-02

    ------------------------------------------------
       NWT REQUIRED            4 OUTER ITERATIONS 
       AND A TOTAL OF          7 INNER ITERATIONS.
    ------------------------------------------------

 NO OUTPUT CONTROL FOR STRESS PERIOD   43   TIME STEP   20
 
 SOLVING FOR HEAD 
                                                   Max.-Head-Change                         Max.-Flux-Residual
  Residual-Control   Outer-Iter.   Inner-Iter.     Column Row Layer    Maximum-Head-Change  Column Row Layer    Maximum-Flux-Residual          L2-NORM 
          0                 1           2             4    7     1      -0.4735290882E-01       4    7    1        -0.2486063166E+01      0.5312159993E+01
          0                 2           2             4    7     1       0.4606103328E-02       4    7    1         0.2486034596E+00      0.5312128077E+00
          0                 3           2             4    7     1      -0.3136589422E-03       4    7    1        -0.1740227446E-01      0.3718493218E-01
          0                 4           1             4    7     1       0.1248078157E-04       4    7    1         0.7117539117E-03      0.1520864980E-02

    ------------------------------------------------
       NWT REQUIRED            4 OUTER ITERATIONS 
       AND A TOTAL OF          7 INNER ITERATIONS.
    ------------------------------------------------

 NO OUTPUT CONTROL FOR STRESS PERIOD   43   TIME STEP   21
 
 SOLVING FOR HEAD 
                                                   Max.-Head-Change                         Max.-Flux-Residual
  Residual-Control   Outer-Iter.   Inner-Iter.     Column Row Layer    Maximum-Head-Change  Column Row Layer    Maximum-Flux-Residual          L2-NORM 
          0                 1           2             4    7     1      -0.4686007425E-01       4    7    1        -0.2460366410E+01      0.5254801548E+01
          0                 2           2             4    7     1       0.4558164286E-02       4    7    1         0.2460338052E+00      0.5254770088E+00
          0                 3           2             4    7     1      -0.3103944678E-03       4    7    1        -0.1722239838E-01      0.3678342725E-01
          0                 4           1             4    7     1       0.1235088448E-04       4    7    1         0.7043969495E-03      0.1504610783E-02

    ------------------------------------------------
       NWT REQUIRED            4 OUTER ITERATIONS 
       AND A TOTAL OF          7 INNER ITERATIONS.
    ------------------------------------------------

 NO OUTPUT CONTROL FOR STRESS PERIOD   43   TIME STEP   22
 
 SOLVING FOR HEAD 
                                                   Max.-Head-Change                         Max.-Flux-Residual
  Residual-Control   Outer-Iter.   Inner-Iter.     Column Row Layer    Maximum-Head-Change  Column Row Layer    Maximum-Flux-Residual          L2-NORM 
          0                 1           2             4    7     1      -0.4636945427E-01       4    7    1        -0.2434761621E+01      0.5199175801E+01
          0                 2           2             4    7     1       0.4510440704E-02       4    7    1         0.2434733505E+00      0.5199144793E+00
          0                 3           2             4    7     1      -0.3071446653E-03       4    7    1        -0.1704316624E-01      0.3639404784E-01
          0                 4           1             4    7     1       0.1222157189E-04       4    7    1         0.6970663499E-03      0.1488520655E-02

    ------------------------------------------------
       NWT REQUIRED            4 OUTER ITERATIONS 
       AND A TOTAL OF          7 INNER ITERATIONS.
    ------------------------------------------------

 NO OUTPUT CONTROL FOR STRESS PERIOD   43   TIME STEP   23
 
 SOLVING FOR HEAD 
                                                   Max.-Head-Change                         Max.-Flux-Residual
  Residual-Control   Outer-Iter.   Inner-Iter.     Column Row Layer    Maximum-Head-Change  Column Row Layer    Maximum-Flux-Residual          L2-NORM 
          0                 1           2             4    7     1      -0.4588144993E-01       4    7    1        -0.2409271672E+01      0.5145209866E+01
          0                 2           2             4    7     1       0.4462971588E-02       4    7    1         0.2409243821E+00      0.5145179300E+00
          0                 3           2             4    7     1      -0.3039121908E-03       4    7    1        -0.1686473814E-01      0.3601628941E-01
          0                 4           1             4    7     1       0.1209294880E-04       4    7    1         0.6897686353E-03      0.1473067635E-02

    ------------------------------------------------
       NWT REQUIRED            4 OUTER ITERATIONS 
       AND A TOTAL OF          7 INNER ITERATIONS.
    ------------------------------------------------

 NO OUTPUT CONTROL FOR STRESS PERIOD   43   TIME STEP   24
 
 SOLVING FOR HEAD 
                                                   Max.-Head-Change                         Max.-Flux-Residual
  Residual-Control   Outer-Iter.   Inner-Iter.     Column Row Layer    Maximum-Head-Change  Column Row Layer    Maximum-Flux-Residual          L2-NORM 
          0                 1           2             4    7     1      -0.4539628995E-01       4    7    1        -0.2383910054E+01      0.5092813685E+01
          0                 2           2             4    7     1       0.4415779182E-02       4    7    1         0.2383882489E+00      0.5092783610E+00
          0                 3           2             4    7     1      -0.3006985585E-03       4    7    1        -0.1668720846E-01      0.3564951661E-01
          0                 4           1             4    7     1       0.1196507566E-04       4    7    1         0.6825076709E-03      0.1458066894E-02

    ------------------------------------------------
       NWT REQUIRED            4 OUTER ITERATIONS 
       AND A TOTAL OF          7 INNER ITERATIONS.
    ------------------------------------------------

 NO OUTPUT CONTROL FOR STRESS PERIOD   43   TIME STEP   25
 
 SOLVING FOR HEAD 
                                                   Max.-Head-Change                         Max.-Flux-Residual
  Residual-Control   Outer-Iter.   Inner-Iter.     Column Row Layer    Maximum-Head-Change  Column Row Layer    Maximum-Flux-Residual          L2-NORM 
          0                 1           2             4    7     1      -0.4491457855E-01       4    7    1        -0.2358710530E+01      0.5041929653E+01
          0                 2           2             4    7     1       0.4368922256E-02       4    7    1         0.2358683271E+00      0.5041900076E+00
          0                 3           2             4    7     1      -0.2975077709E-03       4    7    1        -0.1651081355E-01      0.3529333672E-01
          0                 4           1             4    7     1       0.1183811121E-04       4    7    1         0.6752931063E-03      0.1443500014E-02

    ------------------------------------------------
       NWT REQUIRED            4 OUTER ITERATIONS 
       AND A TOTAL OF          7 INNER ITERATIONS.
    ------------------------------------------------

 NO OUTPUT CONTROL FOR STRESS PERIOD   43   TIME STEP   26
 
 SOLVING FOR HEAD 
                                                   Max.-Head-Change                         Max.-Flux-Residual
  Residual-Control   Outer-Iter.   Inner-Iter.     Column Row Layer    Maximum-Head-Change  Column Row Layer    Maximum-Flux-Residual          L2-NORM 
          0                 1           2             4    7     1      -0.4443634080E-01       4    7    1        -0.2333675225E+01      0.4992478358E+01
          0                 2           2             4    7     1       0.4322403245E-02       4    7    1         0.2333648288E+00      0.4992449239E+00
          0                 3           2             4    7     1      -0.2943399942E-03       4    7    1        -0.1633556829E-01      0.3494717672E-01
          0                 4           1             4    7     1       0.1171206238E-04       4    7    1         0.6681255693E-03      0.1429341773E-02

    ------------------------------------------------
       NWT REQUIRED            4 OUTER ITERATIONS 
       AND A TOTAL OF          7 INNER ITERATIONS.
    ------------------------------------------------

 NO OUTPUT CONTROL FOR STRESS PERIOD   43   TIME STEP   27
 
 SOLVING FOR HEAD 
                                                   Max.-Head-Change                         Max.-Flux-Residual
  Residual-Control   Outer-Iter.   Inner-Iter.     Column Row Layer    Maximum-Head-Change  Column Row Layer    Maximum-Flux-Residual          L2-NORM 
          0                 1           2             4    7     1      -0.4396185067E-01       4    7    1        -0.2308820041E+01      0.4944398959E+01
          0                 2           2             4    7     1       0.4276248797E-02       4    7    1         0.2308793440E+00      0.4944370315E+00
          0                 3           2             4    7     1      -0.2911970428E-03       4    7    1        -0.1616158398E-01      0.3461062574E-01
          0                 4           1             4    7     1       0.1158700145E-04       4    7    1         0.6610096161E-03      0.1415578281E-02

    ------------------------------------------------
       NWT REQUIRED            4 OUTER ITERATIONS 
       AND A TOTAL OF          7 INNER ITERATIONS.
    ------------------------------------------------

 NO OUTPUT CONTROL FOR STRESS PERIOD   43   TIME STEP   28
 
 SOLVING FOR HEAD 
                                                   Max.-Head-Change                         Max.-Flux-Residual
  Residual-Control   Outer-Iter.   Inner-Iter.     Column Row Layer    Maximum-Head-Change  Column Row Layer    Maximum-Flux-Residual          L2-NORM 
          0                 1           2             4    7     1      -0.4349162645E-01       4    7    1        -0.2284173781E+01      0.4897652394E+01
          0                 2           2             4    7     1       0.4230509322E-02       4    7    1         0.2284147528E+00      0.4897624185E+00
          0                 3           2             4    7     1      -0.2880823487E-03       4    7    1        -0.1598906218E-01      0.3428339910E-01
          0                 4           1             4    7     1       0.1146306509E-04       4    7    1         0.6539534563E-03      0.1402191794E-02

    ------------------------------------------------
       NWT REQUIRED            4 OUTER ITERATIONS 
       AND A TOTAL OF          7 INNER ITERATIONS.
    ------------------------------------------------

 NO OUTPUT CONTROL FOR STRESS PERIOD   43   TIME STEP   29
 
 SOLVING FOR HEAD 
                                                   Max.-Head-Change                         Max.-Flux-Residual
  Residual-Control   Outer-Iter.   Inner-Iter.     Column Row Layer    Maximum-Head-Change  Column Row Layer    Maximum-Flux-Residual          L2-NORM 
          0                 1           2             4    7     1      -0.4302573856E-01       4    7    1        -0.2259741420E+01      0.4852157455E+01
          0                 2           2             4    7     1       0.4185191667E-02       4    7    1         0.2259715524E+00      0.4852129742E+00
          0                 3           2             4    7     1      -0.2849963791E-03       4    7    1        -0.1581803775E-01      0.3396494040E-01
          0                 4           1             4    7     1       0.1134027092E-04       4    7    1         0.6469585330E-03      0.1389167874E-02

    ------------------------------------------------
       NWT REQUIRED            4 OUTER ITERATIONS 
       AND A TOTAL OF          7 INNER ITERATIONS.
    ------------------------------------------------

 NO OUTPUT CONTROL FOR STRESS PERIOD   43   TIME STEP   30



 STREAM LISTING     PERIOD     43   STEP       30

 LAYER ROW COL. STREAM  RCH.  FLOW INTO     FLOW TO   FLOW OUT OF   OVRLND.     DIRECT     STREAM       STREAM     STREAM     STREAM   STREAMBED  STREAMBED
                SEG.NO.  NO.  STRM. RCH.    AQUIFER    STRM. RCH.    RUNOFF     PRECIP       ET          HEAD       DEPTH      WIDTH   CONDCTNC.   GRADIENT

   1    1    1     1     1    1.9000E+01  2.1427E-01   1.8786E+01  0.000E+00  0.000E+00  0.000E+00  1.09413E+03  1.082E+00  1.166E+01  5.249E-02  1.361E+00
   1    2    2     1     2    1.8786E+01  3.3054E-01   1.8455E+01  0.000E+00  0.000E+00  0.000E+00  1.08914E+03  1.077E+00  1.158E+01  8.107E-02  1.359E+00
   1    3    3     1     3    1.8455E+01  2.8064E-01   1.8175E+01  0.000E+00  0.000E+00  0.000E+00  1.08349E+03  1.072E+00  1.149E+01  6.892E-02  1.357E+00
   1    3    4     1     4    1.8175E+01  2.5740E-01   1.7917E+01  0.000E+00  0.000E+00  0.000E+00  1.07848E+03  1.068E+00  1.140E+01  6.328E-02  1.356E+00
   1    4    5     2     1    1.5917E+01  3.0542E-01   1.5612E+01  0.000E+00  0.000E+00  0.000E+00  1.07285E+03  9.157E-01  1.200E+01  7.800E-02  1.305E+00
   1    5    6     2     2    1.5612E+01  2.3438E-01   1.5377E+01  0.000E+00  0.000E+00  0.000E+00  1.06742E+03  9.063E-01  1.200E+01  6.000E-02  1.302E+00
   1    6    6     2     3    1.5377E+01  2.3388E-01   1.5143E+01  0.000E+00  0.000E+00  0.000E+00  1.06269E+03  8.980E-01  1.200E+01  6.000E-02  1.299E+00
   1    7    6     2     4    1.5143E+01  2.3338E-01   1.4910E+01  0.000E+00  0.000E+00  0.000E+00  1.05797E+03  8.897E-01  1.200E+01  6.000E-02  1.297E+00
   1    8    6     2     5    1.4910E+01  2.3289E-01   1.4677E+01  0.000E+00  0.000E+00  0.000E+00  1.05324E+03  8.814E-01  1.200E+01  6.000E-02  1.294E+00
   1    3    5     3     1    2.0000E+00  2.8252E-01   1.7175E+00  0.000E+00  0.000E+00  0.000E+00  1.07555E+03  1.909E+00  9.636E+00  7.227E-02  1.955E+00
   1    3    6     3     2    1.7175E+00  2.4905E-01   1.4684E+00  0.000E+00  0.000E+00  0.000E+00  1.07264E+03  1.727E+00  8.909E+00  6.682E-02  1.864E+00
   1    3    7     3     3    1.4684E+00  1.9718E-01   1.2712E+00  0.000E+00  0.000E+00  0.000E+00  1.06987E+03  1.555E+00  8.218E+00  5.547E-02  1.777E+00
   1    4    8     3     4    1.2712E+00  2.2567E-01   1.0456E+00  0.000E+00  0.000E+00  0.000E+00  1.06682E+03  1.364E+00  7.455E+00  6.709E-02  1.682E+00
   1    5    8     3     5    1.0456E+00  1.5790E-01   8.8768E-01  0.000E+00  0.000E+00  0.000E+00  1.06362E+03  1.164E+00  6.655E+00  4.991E-02  1.582E+00
   1    6    8     3     6    8.8768E-01  5.5980E-02   8.3170E-01  0.000E+00  0.000E+00  0.000E+00  1.06158E+03  1.036E+00  6.145E+00  1.844E-02  1.518E+00
   1    5   10     4     1    1.0000E+01  9.0919E-02   9.9091E+00  0.000E+00  0.000E+00  0.000E+00  1.07836E+03  6.368E-01  1.000E+01  2.500E-02  1.212E+00
   1    5    9     4     2    9.9091E+00  1.8158E-01   9.7275E+00  0.000E+00  0.000E+00  0.000E+00  1.07154E+03  6.315E-01  1.000E+01  5.000E-02  1.211E+00
   1    6    8     4     3    9.7275E+00  1.2689E-01   9.6006E+00  0.000E+00  0.000E+00  0.000E+00  1.06381E+03  6.256E-01  1.000E+01  3.500E-02  1.209E+00
   1    6    8     5     1    1.0432E+01  2.2686E-01   1.0205E+01  0.000E+00  0.000E+00  0.000E+00  1.05868E+03  6.790E-01  1.542E+01  6.166E-02  1.226E+00
   1    7    7     5     2    1.0205E+01  2.7894E-01   9.9265E+00  0.000E+00  0.000E+00  0.000E+00  1.05417E+03  6.732E-01  1.519E+01  7.594E-02  1.224E+00
   1    8    7     5     3    9.9265E+00  1.9221E-01   9.7343E+00  0.000E+00  0.000E+00  0.000E+00  1.04992E+03  6.676E-01  1.497E+01  5.241E-02  1.223E+00
   1    8    6     5     4    9.7343E+00  1.3577E-01   9.5985E+00  0.000E+00  0.000E+00  0.000E+00  1.04691E+03  6.637E-01  1.482E+01  3.706E-02  1.221E+00
   1    9    6     6     1    2.4276E+01  2.5176E-01   2.4024E+01  0.000E+00  0.000E+00  0.000E+00  1.04392E+03  1.196E+00  1.200E+01  6.000E-02  1.399E+00
   1   10    7     6     2    2.4024E+01  2.5131E-01   2.3773E+01  0.000E+00  0.000E+00  0.000E+00  1.03937E+03  1.188E+00  1.200E+01  6.000E-02  1.396E+00
   1   11    7     6     3    2.3773E+01  2.5086E-01   2.3522E+01  0.000E+00  0.000E+00  0.000E+00  1.03482E+03  1.181E+00  1.200E+01  6.000E-02  1.394E+00
   1   12    7     6     4    2.3522E+01  2.5041E-01   2.3271E+01  0.000E+00  0.000E+00  0.000E+00  1.03026E+03  1.173E+00  1.200E+01  6.000E-02  1.391E+00
   1   13    7     6     5    2.3271E+01  1.1105E-02   2.3260E+01  0.000E+00  0.000E+00  0.000E+00  1.02708E+03  1.170E+00  1.200E+01  2.400E-02  1.542E-01
   1   14    9     7     1    1.5000E+02  1.3714E+00   1.4863E+02  0.000E+00  0.000E+00  0.000E+00  1.03987E+03  2.288E+00  5.529E+01  5.593E-01  8.173E-01
   1   13    8     7     2    1.4863E+02  1.9727E+00   1.4666E+02  0.000E+00  0.000E+00  0.000E+00  1.03478E+03  2.279E+00  5.525E+01  6.147E-01  1.070E+00
   1   13    7     7     3    1.4666E+02  1.7155E+00   1.4494E+02  0.000E+00  0.000E+00  0.000E+00  1.02969E+03  2.269E+00  5.521E+01  5.584E-01  1.024E+00
   1   13    6     8     1    1.6820E+02  1.1481E+00   1.6705E+02  0.000E+00  0.000E+00  0.000E+00  1.02481E+03  2.937E+00  4.258E+01  4.339E-01  8.819E-01
   1   13    5     8     2    1.6705E+02  3.8249E-01   1.6667E+02  0.000E+00  0.000E+00  0.000E+00  1.01856E+03  2.932E+00  4.251E+01  4.332E-01  2.943E-01
   1   13    4     8     3    1.6667E+02 -1.7496E+00   1.6842E+02  0.000E+00  0.000E+00  0.000E+00  1.01231E+03  2.936E+00  4.257E+01  4.338E+00 -1.344E-01
   1   13    3     8     4    1.6842E+02 -3.3081E+00   1.7173E+02  0.000E+00  0.000E+00  0.000E+00  1.00608E+03  2.953E+00  4.281E+01  4.363E+00 -2.527E-01
   1   13    2     8     5    1.7173E+02 -2.4912E+00   1.7422E+02  0.000E+00  0.000E+00  0.000E+00  9.99846E+02  2.971E+00  4.309E+01  4.391E+00 -1.891E-01
   1   13    1     8     6    1.7422E+02 -1.9598E+00   1.7618E+02  0.000E+00  0.000E+00  0.000E+00  9.94861E+02  2.986E+00  4.329E+01  2.647E+00 -2.468E-01





UNSATURATED ZONE PACKAGE VOLUMETRIC BUDGET FOR  TIME STEP    30 STRESS PERIOD   43
  ------------------------------------------------------------------------------



     CUMULATIVE VOLUMES      L**3       RATES FOR THIS TIME STEP      L**3/T
     ------------------                 ------------------------

           IN:                                      IN:
           ---                                      ---
        INFILTRATION =  1487340600.9899          INFILTRATION =          23.3175

          OUT:                                     OUT:
          ----                                     ----
              UZF ET =  1373486499.1257                UZF ET =          23.3175
        UZF RECHARGE =   113780005.8640          UZF RECHARGE =       0.0000E+00

            IN - OUT =       74096.0002              IN - OUT =       0.0000E+00

          STORAGE:                                 STORAGE:
          --------                                 --------
      STORAGE CHANGE =       74101.9870        STORAGE CHANGE =       8.5025E-15

 PERCENT DISCREPANCY IS DIFFERENCE BETWEEN IN-OUT MINUS CHANGE IN STORAGE
 DIVIDED BY THE AVERAGE OF IN AND OUT TIMES 100

 PERCENT DISCREPANCY =           0.00     PERCENT DISCREPANCY =           0.00






1
  VOLUMETRIC BUDGET FOR AGRICULTURAL FIELDS AT  END OF TIME STEP   30, STRESS PERIOD  43
  ------------------------------------------------------------------------------

     CUMULATIVE VOLUMES      L**3       RATES FOR THIS TIME STEP      L**3/T
     ------------------                 ------------------------

           IN:                                      IN:
           ---                                      ---
               AG WELLS  =  1393653888.0000                 AG WELLS  =          22.4700
      DIVERSION SEGMENTS =           0.0000        DIVERSION SEGMENTS =           0.0000
           GW IRRIGATION =           0.0000             GW IRRIGATION =           0.0000
           SW IRRIGATION =           0.0000             SW IRRIGATION =           0.0000
        SYSTEM LOSSES GW =           0.0000          SYSTEM LOSSES GW =           0.0000
        SYSTEM LOSSES SW =           0.0000          SYSTEM LOSSES SW =           0.0000

                TOTAL IN =  1393653888.0000                  TOTAL IN =          22.4700

          OUT:                                     OUT:
          ----                                     ----
               AG WELLS  =           0.0000                 AG WELLS  =           0.0000
      DIVERSION SEGMENTS =           0.0000        DIVERSION SEGMENTS =           0.0000
           GW IRRIGATION =  1393653888.0000             GW IRRIGATION =          22.4700
           SW IRRIGATION =           0.0000             SW IRRIGATION =           0.0000
        SYSTEM LOSSES GW =           0.0000          SYSTEM LOSSES GW =           0.0000
        SYSTEM LOSSES SW =           0.0000          SYSTEM LOSSES SW =           0.0000

               TOTAL OUT =  1393653888.0000                 TOTAL OUT =          22.4700

                IN - OUT =           0.0000                  IN - OUT =           0.0000

     PERCENT DISCREPANCY =           0.00         PERCENT DISCREPANCY =           0.00



1
  VOLUMETRIC BUDGET FOR ENTIRE MODEL AT END OF TIME STEP   30, STRESS PERIOD  43
  ------------------------------------------------------------------------------

     CUMULATIVE VOLUMES      L**3       RATES FOR THIS TIME STEP      L**3/T
     ------------------                 ------------------------

           IN:                                      IN:
           ---                                      ---
             STORAGE     =  1850033408.0000               STORAGE     =          19.6827
       CONSTANT HEAD     =           0.0000         CONSTANT HEAD     =           0.0000
     HEAD DEP BOUNDS     =    31629748.0000       HEAD DEP BOUNDS     =           0.2882
      STREAM LEAKAGE     =  1354024448.0000        STREAM LEAKAGE     =          12.3299
        UZF RECHARGE     =   113780112.0000          UZF RECHARGE     =           0.0000
               GW ET     =           0.0000                 GW ET     =           0.0000
     SURFACE LEAKAGE     =           0.0000       SURFACE LEAKAGE     =           0.0000
           AG WELLS      =           0.0000             AG WELLS      =           0.0000

                TOTAL IN =  3349467648.0000                  TOTAL IN =          32.3008

          OUT:                                     OUT:
          ----                                     ----
             STORAGE     =   783346752.0000               STORAGE     =       3.3420E-02
       CONSTANT HEAD     =           0.0000         CONSTANT HEAD     =           0.0000
     HEAD DEP BOUNDS     =    32272244.0000       HEAD DEP BOUNDS     =           0.2888
      STREAM LEAKAGE     =  1122577664.0000        STREAM LEAKAGE     =           9.5086
        UZF RECHARGE     =           0.0000          UZF RECHARGE     =           0.0000
               GW ET     =    17607600.0000                 GW ET     =           0.0000
     SURFACE LEAKAGE     =           0.0000       SURFACE LEAKAGE     =           0.0000
           AG WELLS      =  1393653888.0000             AG WELLS      =          22.4700

               TOTAL OUT =  3349458176.0000                 TOTAL OUT =          32.3009

                IN - OUT =        9472.0000                  IN - OUT =      -6.4850E-05

     PERCENT DISCREPANCY =           0.00         PERCENT DISCREPANCY =          -0.00






         TIME SUMMARY AT END OF TIME STEP   30 IN STRESS PERIOD   43
                    SECONDS     MINUTES      HOURS       DAYS        YEARS
                    -----------------------------------------------------------
   TIME STEP LENGTH  87667.      1461.1      24.352      1.0147     2.77799E-03
 STRESS PERIOD TIME 2.63000E+06  43833.      730.56      30.440     8.33397E-02
         TOTAL TIME 1.10545E+08 1.84242E+06  30707.      1279.5      3.5030    
1
1
                            STRESS PERIOD NO.   44, LENGTH =   2630000.    
                            -----------------------------------------------

                              NUMBER OF TIME STEPS =    30

                               MULTIPLIER FOR DELT =     1.000

                            INITIAL TIME STEP SIZE =   87666.66    

 REUSING NON-PARAMETER GHB CELLS FROM LAST STRESS PERIOD

      2 GHB CELLS

 REUSING STREAM SEGMENT DATA FROM LAST STRESS PERIOD



            AREAL INFILTRATION RATE
 READING ON UNIT   19 WITH FORMAT: (FREE)              

            1           2           3           4           5           6           7           8           9          10
 ........................................................................................................................
   1   1.0000E-10  2.0000E-10   0.000       0.000       0.000       0.000       0.000       0.000       0.000       0.000    
   2   2.0000E-10  1.0000E-10  2.0000E-10   0.000       0.000      8.0000E-10  8.0000E-10  5.0000E-10   0.000       0.000    
   3    0.000      5.0000E-10  1.0000E-10  1.0000E-10  8.0000E-10  8.0000E-10  5.0000E-10  5.0000E-10   0.000       0.000    
   4   8.0000E-10  5.0000E-10  1.0000E-10  1.0000E-10  1.0000E-10  1.0000E-10  1.0000E-10  1.0000E-10  2.0000E-10   0.000    
   5   8.0000E-10  5.0000E-10  1.0000E-10  1.0000E-10  1.0000E-10  1.0000E-10  1.0000E-10  1.0000E-10  1.0000E-10  1.0000E-10
   6   8.0000E-10  5.0000E-10  5.0000E-10  2.0000E-10  2.0000E-10  1.0000E-10  1.0000E-10  1.0000E-10  1.0000E-10  5.0000E-10
   7   8.0000E-10  5.0000E-10  5.0000E-10  2.0000E-10  2.0000E-10  1.0000E-10  1.0000E-10  2.0000E-10  2.0000E-10   0.000    
   8    0.000      5.0000E-10  5.0000E-10  2.0000E-10  2.0000E-10  1.0000E-10  1.0000E-10  2.0000E-10  5.0000E-10   0.000    
   9    0.000      5.0000E-10  5.0000E-10  2.0000E-10  2.0000E-10  1.0000E-10  1.0000E-10  2.0000E-10  5.0000E-10   0.000    
  10    0.000      5.0000E-10  5.0000E-10  2.0000E-10  2.0000E-10  1.0000E-10  1.0000E-10  2.0000E-10  5.0000E-10  8.0000E-10
  11    0.000      1.0000E-10  1.0000E-10  1.0000E-10  1.0000E-10  1.0000E-10  1.0000E-10  2.0000E-10  5.0000E-10   0.000    
  12   1.0000E-10  1.0000E-10  1.0000E-10  1.0000E-10  1.0000E-10  1.0000E-10  1.0000E-10  1.0000E-10  2.0000E-10   0.000    
  13   1.0000E-10  1.0000E-10  2.0000E-10  2.0000E-10  2.0000E-10  2.0000E-10  2.0000E-10  1.0000E-10  1.0000E-10   0.000    
  14    0.000      2.0000E-10  5.0000E-10  5.0000E-10  5.0000E-10  5.0000E-10  5.0000E-10  2.0000E-10  1.0000E-10   0.000    
  15    0.000       0.000      8.0000E-10  8.0000E-10  8.0000E-10  8.0000E-10   0.000       0.000       0.000       0.000    

                  ET RATE =  4.000000E-07

 USING ET EXTINCTION DEPTH FROM PREVIOUS STRESS PERIOD. CURRENT PERIOD IS:      44

 USING EXTINCTION WATER CONTENT FROM PREVIOUS STRESS PERIOD. CURRENT PERIOD IS:      44

 USING AIR ENTRY PRESSURE FROM PREVIOUS STRESS PERIOD. CURRENT PERIOD IS:      44

 USING ROOT PRESSURE HEAD FROM PREVIOUS STRESS PERIOD. CURRENT PERIOD IS:      44

 USING ROOT ACTIVITY FROM PREVIOUS STRESS PERIOD. CURRENT PERIOD IS:      44

 PROCESSING AG STRESS PERIOD DATA

 READING AG STRESS PERIOD DATA

 READING IRRIGATION WELL

 END PROCESSING AG STRESS PERIOD DATA OPTIONS
 
 SOLVING FOR HEAD 
                                                   Max.-Head-Change                         Max.-Flux-Residual
  Residual-Control   Outer-Iter.   Inner-Iter.     Column Row Layer    Maximum-Head-Change  Column Row Layer    Maximum-Flux-Residual          L2-NORM 
          0                 1           2             4    7     1      -0.1622813159E+00       4    7    1        -0.8485533669E+01      0.1986266958E+02
          0                 2           2             6    7     1       0.1200216010E-02       6    7    1         0.6595840177E-01      0.1757858262E+00
          0                 3           2             5    6     1      -0.1203238831E-01       4    7    1        -0.6483929358E+00      0.1580755469E+01
          0                 4           2             4    7     1      -0.9016361630E-02       5    7    1        -0.4987411229E+00      0.1188575646E+01
          0                 5           2             5    6     1       0.8361296483E-03       5    6    1         0.4680129338E-01      0.7727912260E-01
          0                 6           1             5    6     1      -0.5693736846E-04       5    6    1        -0.3314353967E-02      0.4706303743E-02

    ------------------------------------------------
       NWT REQUIRED            6 OUTER ITERATIONS 
       AND A TOTAL OF         11 INNER ITERATIONS.
    ------------------------------------------------

 NO OUTPUT CONTROL FOR STRESS PERIOD   44   TIME STEP    1
 
 SOLVING FOR HEAD 
                                                   Max.-Head-Change                         Max.-Flux-Residual
  Residual-Control   Outer-Iter.   Inner-Iter.     Column Row Layer    Maximum-Head-Change  Column Row Layer    Maximum-Flux-Residual          L2-NORM 
          0                 1           2             4    7     1      -0.1610024976E+00       4    7    1        -0.8422420658E+01      0.1947002473E+02
          0                 2           2             6    7     1       0.1420798937E-02       6    7    1         0.7828842305E-01      0.2137513287E+00
          0                 3           2             5    7     1      -0.1222728318E-01       4    7    1        -0.6479614370E+00      0.1576873999E+01
          0                 4           2             4    7     1      -0.9016727744E-02       4    7    1        -0.4991642222E+00      0.1141892287E+01
          0                 5           2             5    7     1       0.8473681549E-03       5    7    1         0.4636839166E-01      0.1050934790E+00
          0                 6           1             5    7     1      -0.5770272532E-04       5    7    1        -0.3265099565E-02      0.7259064730E-02

    ------------------------------------------------
       NWT REQUIRED            6 OUTER ITERATIONS 
       AND A TOTAL OF         11 INNER ITERATIONS.
    ------------------------------------------------

 NO OUTPUT CONTROL FOR STRESS PERIOD   44   TIME STEP    2
 
 SOLVING FOR HEAD 
                                                   Max.-Head-Change                         Max.-Flux-Residual
  Residual-Control   Outer-Iter.   Inner-Iter.     Column Row Layer    Maximum-Head-Change  Column Row Layer    Maximum-Flux-Residual          L2-NORM 
          0                 1           2             4    7     1      -0.1596658069E+00       4    7    1        -0.8355985816E+01      0.1909777233E+02
          0                 2           2             6    7     1       0.1631381095E-02       6    7    1         0.9007074311E-01      0.2560723031E+00
          0                 3           2             5    7     1      -0.1220040464E-01       4    7    1        -0.6475169001E+00      0.1572857134E+01
          0                 4           2             4    7     1      -0.9017111414E-02       4    7    1        -0.4991777020E+00      0.1142277703E+01
          0                 5           2             5    7     1       0.8476315373E-03       5    7    1         0.4638236866E-01      0.1051347832E+00
          0                 6           1             5    7     1      -0.5772066054E-04       5    7    1        -0.3266070825E-02      0.7261982159E-02

    ------------------------------------------------
       NWT REQUIRED            6 OUTER ITERATIONS 
       AND A TOTAL OF         11 INNER ITERATIONS.
    ------------------------------------------------

 NO OUTPUT CONTROL FOR STRESS PERIOD   44   TIME STEP    3
 
 SOLVING FOR HEAD 
                                                   Max.-Head-Change                         Max.-Flux-Residual
  Residual-Control   Outer-Iter.   Inner-Iter.     Column Row Layer    Maximum-Head-Change  Column Row Layer    Maximum-Flux-Residual          L2-NORM 
          0                 1           2             4    7     1      -0.1582765834E+00       4    7    1        -0.8286522692E+01      0.1874437500E+02
          0                 2           2             6    7     1       0.1832233127E-02       6    7    1         0.1013189915E+00      0.2996611432E+00
          0                 3           2             5    7     1      -0.1217392354E-01       4    7    1        -0.6470506658E+00      0.1568984928E+01
          0                 4           2             4    7     1      -0.9017510558E-02       4    7    1        -0.4991921817E+00      0.1142648865E+01
          0                 5           2             5    7     1       0.8478911520E-03       5    7    1         0.4639616714E-01      0.1051744964E+00
          0                 6           1             5    7     1      -0.5773833933E-04       5    7    1        -0.3267029766E-02      0.7264786093E-02

    ------------------------------------------------
       NWT REQUIRED            6 OUTER ITERATIONS 
       AND A TOTAL OF         11 INNER ITERATIONS.
    ------------------------------------------------

 NO OUTPUT CONTROL FOR STRESS PERIOD   44   TIME STEP    4
 
 SOLVING FOR HEAD 
                                                   Max.-Head-Change                         Max.-Flux-Residual
  Residual-Control   Outer-Iter.   Inner-Iter.     Column Row Layer    Maximum-Head-Change  Column Row Layer    Maximum-Flux-Residual          L2-NORM 
          0                 1           2             4    7     1      -0.1568404972E+00       4    7    1        -0.8214343391E+01      0.1840845631E+02
          0                 2           2             5    8     1      -0.2197563343E-02       5    8    1        -0.1228745514E+00      0.3430868541E+00
          0                 3           2             5    7     1      -0.1214786493E-01       4    7    1        -0.6465649251E+00      0.1565249927E+01
          0                 4           2             4    7     1      -0.9017923534E-02       4    7    1        -0.4992075700E+00      0.1143006472E+01
          0                 5           2             5    7     1       0.8481467454E-03       5    7    1         0.4640977053E-01      0.1052126985E+00
          0                 6           1             5    7     1      -0.5775574428E-04       5    7    1        -0.3267975207E-02      0.7267482623E-02

    ------------------------------------------------
       NWT REQUIRED            6 OUTER ITERATIONS 
       AND A TOTAL OF         11 INNER ITERATIONS.
    ------------------------------------------------

 NO OUTPUT CONTROL FOR STRESS PERIOD   44   TIME STEP    5
 
 SOLVING FOR HEAD 
                                                   Max.-Head-Change                         Max.-Flux-Residual
  Residual-Control   Outer-Iter.   Inner-Iter.     Column Row Layer    Maximum-Head-Change  Column Row Layer    Maximum-Flux-Residual          L2-NORM 
          0                 1           2             4    7     1      -0.1553624754E+00       4    7    1        -0.8139720046E+01      0.1808873764E+02
          0                 2           2             5    8     1      -0.2581647734E-02       5    8    1        -0.1439460188E+00      0.3856716407E+00
          0                 3           2             5    7     1      -0.1212224591E-01       4    7    1        -0.6460615914E+00      0.1561644960E+01
          0                 4           2             4    7     1      -0.9018348917E-02       4    7    1        -0.4992237863E+00      0.1143351202E+01
          0                 5           2             5    7     1       0.8483981410E-03       5    7    1         0.4642316675E-01      0.1052494667E+00
          0                 6           1             5    7     1      -0.5777286333E-04       5    7    1        -0.3268906324E-02      0.7270077137E-02

    ------------------------------------------------
       NWT REQUIRED            6 OUTER ITERATIONS 
       AND A TOTAL OF         11 INNER ITERATIONS.
    ------------------------------------------------

 NO OUTPUT CONTROL FOR STRESS PERIOD   44   TIME STEP    6
 
 SOLVING FOR HEAD 
                                                   Max.-Head-Change                         Max.-Flux-Residual
  Residual-Control   Outer-Iter.   Inner-Iter.     Column Row Layer    Maximum-Head-Change  Column Row Layer    Maximum-Flux-Residual          L2-NORM 
          0                 1           2             4    7     1      -0.1538474135E+00       4    7    1        -0.8062922685E+01      0.1778408370E+02
          0                 2           2             5    8     1      -0.2945778955E-02       5    8    1        -0.1639046343E+00      0.4270938359E+00
          0                 3           2             4    7     1      -0.1235812700E-01       4    7    1        -0.6454869850E+00      0.1558141537E+01
          0                 4           2             4    7     1      -0.8800437591E-02       5    8    1        -0.4610102925E+00      0.1127568804E+01
          0                 5           2             4    7     1       0.8560421888E-03       5    8    1         0.4611409533E-01      0.1127794194E+00
          0                 6           1             4    7     1      -0.5829330454E-04       5    8    1        -0.3228507571E-02      0.7895788345E-02

    ------------------------------------------------
       NWT REQUIRED            6 OUTER ITERATIONS 
       AND A TOTAL OF         11 INNER ITERATIONS.
    ------------------------------------------------

 NO OUTPUT CONTROL FOR STRESS PERIOD   44   TIME STEP    7
 
 SOLVING FOR HEAD 
                                                   Max.-Head-Change                         Max.-Flux-Residual
  Residual-Control   Outer-Iter.   Inner-Iter.     Column Row Layer    Maximum-Head-Change  Column Row Layer    Maximum-Flux-Residual          L2-NORM 
          0                 1           2             4    7     1      -0.1522997669E+00       4    7    1        -0.7984198112E+01      0.1749344276E+02
          0                 2           2             5    8     1      -0.3291305598E-02       5    8    1        -0.1828263036E+00      0.4672061423E+00
          0                 3           2             4    7     1      -0.1234268155E-01       4    7    1        -0.6447006071E+00      0.1554676966E+01
          0                 4           2             4    7     1      -0.8802011761E-02       5    8    1        -0.4611977949E+00      0.1127917231E+01
          0                 5           2             4    7     1       0.8561953130E-03       5    8    1         0.4613280708E-01      0.1128142345E+00
          0                 6           1             4    7     1      -0.5830373106E-04       5    8    1        -0.3229815871E-02      0.7898236554E-02

    ------------------------------------------------
       NWT REQUIRED            6 OUTER ITERATIONS 
       AND A TOTAL OF         11 INNER ITERATIONS.
    ------------------------------------------------

 NO OUTPUT CONTROL FOR STRESS PERIOD   44   TIME STEP    8
 
 SOLVING FOR HEAD 
                                                   Max.-Head-Change                         Max.-Flux-Residual
  Residual-Control   Outer-Iter.   Inner-Iter.     Column Row Layer    Maximum-Head-Change  Column Row Layer    Maximum-Flux-Residual          L2-NORM 
          0                 1           2             4    7     1      -0.1507238257E+00       4    7    1        -0.7903784090E+01      0.1721585162E+02
          0                 2           2             5    8     1      -0.3619469713E-02       5    8    1        -0.2007809514E+00      0.5059550342E+00
          0                 3           2             4    7     1      -0.1232695426E-01       4    7    1        -0.6438973243E+00      0.1551321952E+01
          0                 4           2             4    7     1      -0.8803614992E-02       5    8    1        -0.4613757442E+00      0.1128254789E+01
          0                 5           2             4    7     1       0.8563512644E-03       5    8    1         0.4615056610E-01      0.1128479637E+00
          0                 6           1             4    7     1      -0.5831435118E-04       5    8    1        -0.3231057581E-02      0.7900579652E-02

    ------------------------------------------------
       NWT REQUIRED            6 OUTER ITERATIONS 
       AND A TOTAL OF         11 INNER ITERATIONS.
    ------------------------------------------------

 NO OUTPUT CONTROL FOR STRESS PERIOD   44   TIME STEP    9
 
 SOLVING FOR HEAD 
                                                   Max.-Head-Change                         Max.-Flux-Residual
  Residual-Control   Outer-Iter.   Inner-Iter.     Column Row Layer    Maximum-Head-Change  Column Row Layer    Maximum-Flux-Residual          L2-NORM 
          0                 1           2             4    7     1      -0.1491234665E+00       4    7    1        -0.7821896035E+01      0.1695043045E+02
          0                 2           2             5    8     1      -0.3931430362E-02       5    8    1        -0.2178337582E+00      0.5433380849E+00
          0                 3           2             4    7     1      -0.1231098380E-01       4    7    1        -0.6430792901E+00      0.1548071309E+01
          0                 4           2             4    7     1      -0.8805243336E-02       5    8    1        -0.4615447838E+00      0.1128581965E+01
          0                 5           2             4    7     1       0.8565096584E-03       5    8    1         0.4616743653E-01      0.1128806558E+00
          0                 6           1             4    7     1      -0.5832513686E-04       5    8    1        -0.3232237187E-02      0.7902865002E-02

    ------------------------------------------------
       NWT REQUIRED            6 OUTER ITERATIONS 
       AND A TOTAL OF         11 INNER ITERATIONS.
    ------------------------------------------------

 NO OUTPUT CONTROL FOR STRESS PERIOD   44   TIME STEP   10
 
 SOLVING FOR HEAD 
                                                   Max.-Head-Change                         Max.-Flux-Residual
  Residual-Control   Outer-Iter.   Inner-Iter.     Column Row Layer    Maximum-Head-Change  Column Row Layer    Maximum-Flux-Residual          L2-NORM 
          0                 1           2             4    7     1      -0.1475024457E+00       4    7    1        -0.7738742212E+01      0.1669639492E+02
          0                 2           2             5    8     1      -0.4228256276E-02       5    8    1        -0.2340448209E+00      0.5793780714E+00
          0                 3           2             4    7     1      -0.1229480764E-01       4    7    1        -0.6422485864E+00      0.1544920411E+01
          0                 4           2             4    7     1      -0.8806892966E-02       5    8    1        -0.4617055067E+00      0.1128899196E+01
          0                 5           2             4    7     1       0.8566701229E-03       5    8    1         0.4618347752E-01      0.1129123542E+00
          0                 6           1             4    7     1      -0.5833606454E-04       5    8    1        -0.3233358817E-02      0.7905080979E-02

    ------------------------------------------------
       NWT REQUIRED            6 OUTER ITERATIONS 
       AND A TOTAL OF         11 INNER ITERATIONS.
    ------------------------------------------------

 NO OUTPUT CONTROL FOR STRESS PERIOD   44   TIME STEP   11
 
 SOLVING FOR HEAD 
                                                   Max.-Head-Change                         Max.-Flux-Residual
  Residual-Control   Outer-Iter.   Inner-Iter.     Column Row Layer    Maximum-Head-Change  Column Row Layer    Maximum-Flux-Residual          L2-NORM 
          0                 1           2             4    7     1      -0.1458643878E+00       4    7    1        -0.7654524645E+01      0.1645300152E+02
          0                 2           2             5    8     1      -0.4510923234E-02       5    8    1        -0.2494687744E+00      0.6140038877E+00
          0                 3           2             4    7     1      -0.1227846181E-01       4    7    1        -0.6414072326E+00      0.1541864370E+01
          0                 4           2             4    7     1      -0.8808560212E-02       5    8    1        -0.4618584527E+00      0.1129206934E+01
          0                 5           2             4    7     1       0.8568323008E-03       5    8    1         0.4619874292E-01      0.1129431056E+00
          0                 6           1             4    7     1      -0.5834710748E-04       5    8    1        -0.3234426235E-02      0.7907230875E-02

    ------------------------------------------------
       NWT REQUIRED            6 OUTER ITERATIONS 
       AND A TOTAL OF         11 INNER ITERATIONS.
    ------------------------------------------------

 NO OUTPUT CONTROL FOR STRESS PERIOD   44   TIME STEP   12
 
 SOLVING FOR HEAD 
                                                   Max.-Head-Change                         Max.-Flux-Residual
  Residual-Control   Outer-Iter.   Inner-Iter.     Column Row Layer    Maximum-Head-Change  Column Row Layer    Maximum-Flux-Residual          L2-NORM 
          0                 1           2             4    7     1      -0.1442122755E+00       4    7    1        -0.7569409529E+01      0.1621961606E+02
          0                 2           2             5    8     1      -0.4780332382E-02       5    8    1        -0.2641568141E+00      0.6476058026E+00
          0                 3           2             4    7     1      -0.1226197640E-01       4    7    1        -0.6405568902E+00      0.1538899814E+01
          0                 4           2             4    7     1      -0.8810241978E-02       5    8    1        -0.4620041246E+00      0.1129505543E+01
          0                 5           2             4    7     1       0.8569958910E-03       5    8    1         0.4621328272E-01      0.1129729433E+00
          0                 6           1             4    7     1      -0.5835824780E-04       5    8    1        -0.3235442934E-02      0.7909316790E-02

    ------------------------------------------------
       NWT REQUIRED            6 OUTER ITERATIONS 
       AND A TOTAL OF         11 INNER ITERATIONS.
    ------------------------------------------------

 NO OUTPUT CONTROL FOR STRESS PERIOD   44   TIME STEP   13
 
 SOLVING FOR HEAD 
                                                   Max.-Head-Change                         Max.-Flux-Residual
  Residual-Control   Outer-Iter.   Inner-Iter.     Column Row Layer    Maximum-Head-Change  Column Row Layer    Maximum-Flux-Residual          L2-NORM 
          0                 1           2             4    7     1      -0.1425491299E+00       4    7    1        -0.7483565841E+01      0.1599563286E+02
          0                 2           2             5    8     1      -0.5037350242E-02       5    8    1        -0.2781569763E+00      0.6799020469E+00
          0                 3           2             4    7     1      -0.1224538119E-01       4    7    1        -0.6396992483E+00      0.1536021927E+01
          0                 4           2             4    7     1      -0.8811935233E-02       5    8    1        -0.4621429991E+00      0.1129795451E+01
          0                 5           2             4    7     1       0.8571605991E-03       5    8    1         0.4622714459E-01      0.1130019121E+00
          0                 6           1             4    7     1      -0.5836946411E-04       5    8    1        -0.3236412259E-02      0.7911342120E-02

    ------------------------------------------------
       NWT REQUIRED            6 OUTER ITERATIONS 
       AND A TOTAL OF         11 INNER ITERATIONS.
    ------------------------------------------------

 NO OUTPUT CONTROL FOR STRESS PERIOD   44   TIME STEP   14
 
 SOLVING FOR HEAD 
                                                   Max.-Head-Change                         Max.-Flux-Residual
  Residual-Control   Outer-Iter.   Inner-Iter.     Column Row Layer    Maximum-Head-Change  Column Row Layer    Maximum-Flux-Residual          L2-NORM 
          0                 1           2             4    7     1      -0.1408777608E+00       4    7    1        -0.7397150407E+01      0.1578045424E+02
          0                 2           2             5    8     1      -0.5282722747E-02       5    8    1        -0.2915113243E+00      0.7110453526E+00
          0                 3           2             4    7     1      -0.1222870432E-01       4    7    1        -0.6388358747E+00      0.1533227303E+01
          0                 4           2             4    7     1      -0.8813637100E-02       5    8    1        -0.4622754902E+00      0.1130076999E+01
          0                 5           2             4    7     1       0.8573261442E-03       5    8    1         0.4624036971E-01      0.1130300457E+00
          0                 6           1             4    7     1      -0.5838073638E-04       5    8    1        -0.3237337070E-02      0.7913309001E-02

    ------------------------------------------------
       NWT REQUIRED            6 OUTER ITERATIONS 
       AND A TOTAL OF         11 INNER ITERATIONS.
    ------------------------------------------------

 NO OUTPUT CONTROL FOR STRESS PERIOD   44   TIME STEP   15
 
 SOLVING FOR HEAD 
                                                   Max.-Head-Change                         Max.-Flux-Residual
  Residual-Control   Outer-Iter.   Inner-Iter.     Column Row Layer    Maximum-Head-Change  Column Row Layer    Maximum-Flux-Residual          L2-NORM 
          0                 1           2             4    7     1      -0.1392008992E+00       4    7    1        -0.7310316101E+01      0.1557355467E+02
          0                 2           2             5    8     1      -0.5517199516E-02       5    8    1        -0.3042618261E+00      0.7410891477E+00
          0                 3           2             4    7     1      -0.1221197302E-01       4    7    1        -0.6379682977E+00      0.1530512349E+01
          0                 4           2             4    7     1      -0.8815344797E-02       5    8    1        -0.4624020125E+00      0.1130350538E+01
          0                 5           2             4    7     1       0.8574922568E-03       5    8    1         0.4625299948E-01      0.1130573793E+00
          0                 6           1             4    7     1      -0.5839204818E-04       5    8    1        -0.3238220248E-02      0.7915220136E-02

    ------------------------------------------------
       NWT REQUIRED            6 OUTER ITERATIONS 
       AND A TOTAL OF         11 INNER ITERATIONS.
    ------------------------------------------------

 NO OUTPUT CONTROL FOR STRESS PERIOD   44   TIME STEP   16
 
 SOLVING FOR HEAD 
                                                   Max.-Head-Change                         Max.-Flux-Residual
  Residual-Control   Outer-Iter.   Inner-Iter.     Column Row Layer    Maximum-Head-Change  Column Row Layer    Maximum-Flux-Residual          L2-NORM 
          0                 1           2             4    7     1      -0.1375208087E+00       4    7    1        -0.7223189994E+01      0.1537445549E+02
          0                 2           2             5    8     1      -0.5741446448E-02       5    8    1        -0.3164457924E+00      0.7700850896E+00
          0                 3           2             4    7     1      -0.1219520988E-01       4    7    1        -0.6370977880E+00      0.1527873713E+01
          0                 4           2             4    7     1      -0.8817056015E-02       5    8    1        -0.4625229344E+00      0.1130616396E+01
          0                 5           2             4    7     1       0.8576587120E-03       5    8    1         0.4626507062E-01      0.1130839456E+00
          0                 6           1             4    7     1      -0.5840338317E-04       5    8    1        -0.3239064388E-02      0.7917077561E-02

    ------------------------------------------------
       NWT REQUIRED            6 OUTER ITERATIONS 
       AND A TOTAL OF         11 INNER ITERATIONS.
    ------------------------------------------------

 NO OUTPUT CONTROL FOR STRESS PERIOD   44   TIME STEP   17
 
 SOLVING FOR HEAD 
                                                   Max.-Head-Change                         Max.-Flux-Residual
  Residual-Control   Outer-Iter.   Inner-Iter.     Column Row Layer    Maximum-Head-Change  Column Row Layer    Maximum-Flux-Residual          L2-NORM 
          0                 1           2             4    7     1      -0.1358395695E+00       4    7    1        -0.7135889464E+01      0.1518270317E+02
          0                 2           2             5    8     1      -0.5956094669E-02       5    8    1        -0.3280985289E+00      0.7980828577E+00
          0                 3           2             4    7     1      -0.1217843563E-01       4    7    1        -0.6362255186E+00      0.1525308154E+01
          0                 4           2             4    7     1      -0.8818768632E-02       5    8    1        -0.4626386045E+00      0.1130874892E+01
          0                 5           2             4    7     1       0.8578253030E-03       5    8    1         0.4627661791E-01      0.1131097764E+00
          0                 6           1             4    7     1      -0.5841472763E-04       5    8    1        -0.3239871923E-02      0.7918883717E-02

    ------------------------------------------------
       NWT REQUIRED            6 OUTER ITERATIONS 
       AND A TOTAL OF         11 INNER ITERATIONS.
    ------------------------------------------------

 NO OUTPUT CONTROL FOR STRESS PERIOD   44   TIME STEP   18
 
 SOLVING FOR HEAD 
                                                   Max.-Head-Change                         Max.-Flux-Residual
  Residual-Control   Outer-Iter.   Inner-Iter.     Column Row Layer    Maximum-Head-Change  Column Row Layer    Maximum-Flux-Residual          L2-NORM 
          0                 1           2             4    7     1      -0.1341594965E+00       4    7    1        -0.7048544099E+01      0.1499790802E+02
          0                 2           2             5    8     1      -0.6161588151E-02       5    8    1        -0.3392512041E+00      0.8252111996E+00
          0                 3           2             4    7     1      -0.1216167336E-01       4    7    1        -0.6353527855E+00      0.1522813186E+01
          0                 4           2             4    7     1      -0.8820480288E-02       5    8    1        -0.4627492891E+00      0.1131126284E+01
          0                 5           2             4    7     1       0.8579918008E-03       5    8    1         0.4628766438E-01      0.1131348964E+00
          0                 6           1             4    7     1      -0.5842606547E-04       5    8    1        -0.3240644299E-02      0.7920640092E-02

    ------------------------------------------------
       NWT REQUIRED            6 OUTER ITERATIONS 
       AND A TOTAL OF         11 INNER ITERATIONS.
    ------------------------------------------------

 NO OUTPUT CONTROL FOR STRESS PERIOD   44   TIME STEP   19
 
 SOLVING FOR HEAD 
                                                   Max.-Head-Change                         Max.-Flux-Residual
  Residual-Control   Outer-Iter.   Inner-Iter.     Column Row Layer    Maximum-Head-Change  Column Row Layer    Maximum-Flux-Residual          L2-NORM 
          0                 1           2             4    7     1      -0.1324821932E+00       4    7    1        -0.6961244925E+01      0.1481963601E+02
          0                 2           2             5    8     1      -0.6358798230E-02       5    8    1        -0.3499356019E+00      0.8513112263E+00
          0                 3           2             4    7     1      -0.1214493906E-01       4    7    1        -0.6344804988E+00      0.1520385040E+01
          0                 4           2             4    7     1      -0.8822189348E-02       5    8    1        -0.4628554202E+00      0.1131370921E+01
          0                 5           2             4    7     1       0.8581580453E-03       5    8    1         0.4629825709E-01      0.1131593413E+00
          0                 6           1             4    7     1      -0.5843738590E-04       5    8    1        -0.3241385004E-02      0.7922349434E-02

    ------------------------------------------------
       NWT REQUIRED            6 OUTER ITERATIONS 
       AND A TOTAL OF         11 INNER ITERATIONS.
    ------------------------------------------------

 NO OUTPUT CONTROL FOR STRESS PERIOD   44   TIME STEP   20
 
 SOLVING FOR HEAD 
                                                   Max.-Head-Change                         Max.-Flux-Residual
  Residual-Control   Outer-Iter.   Inner-Iter.     Column Row Layer    Maximum-Head-Change  Column Row Layer    Maximum-Flux-Residual          L2-NORM 
          0                 1           2             4    7     1      -0.1308096496E+00       4    7    1        -0.6874104067E+01      0.1464754723E+02
          0                 2           2             5    8     1      -0.6548053971E-02       5    8    1        -0.3601795418E+00      0.8765311281E+00
          0                 3           2             4    7     1      -0.1212825257E-01       4    7    1        -0.6336097792E+00      0.1518021452E+01
          0                 4           2             4    7     1      -0.8823893783E-02       5    8    1        -0.4629571992E+00      0.1131609034E+01
          0                 5           2             4    7     1       0.8583238407E-03       5    8    1         0.4630841959E-01      0.1131831362E+00
          0                 6           1             4    7     1      -0.5844867616E-04       5    8    1        -0.3242095763E-02      0.7924013281E-02

    ------------------------------------------------
       NWT REQUIRED            6 OUTER ITERATIONS 
       AND A TOTAL OF         11 INNER ITERATIONS.
    ------------------------------------------------

 NO OUTPUT CONTROL FOR STRESS PERIOD   44   TIME STEP   21
 
 SOLVING FOR HEAD 
                                                   Max.-Head-Change                         Max.-Flux-Residual
  Residual-Control   Outer-Iter.   Inner-Iter.     Column Row Layer    Maximum-Head-Change  Column Row Layer    Maximum-Flux-Residual          L2-NORM 
          0                 1           2             4    7     1      -0.1291433030E+00       4    7    1        -0.6787202963E+01      0.1448129657E+02
          0                 2           2             5    8     1      -0.6729765403E-02       5    8    1        -0.3700107153E+00      0.9009707372E+00
          0                 3           2             4    7     1      -0.1211162822E-01       4    7    1        -0.6327414415E+00      0.1515720091E+01
          0                 4           2             4    7     1      -0.8825592123E-02       5    8    1        -0.4630548707E+00      0.1131840867E+01
          0                 5           2             4    7     1       0.8584890424E-03       5    8    1         0.4631817173E-01      0.1132063036E+00
          0                 6           1             4    7     1      -0.5845992572E-04       5    8    1        -0.3242777808E-02      0.7925633342E-02

    ------------------------------------------------
       NWT REQUIRED            6 OUTER ITERATIONS 
       AND A TOTAL OF         11 INNER ITERATIONS.
    ------------------------------------------------

 NO OUTPUT CONTROL FOR STRESS PERIOD   44   TIME STEP   22
 
 SOLVING FOR HEAD 
                                                   Max.-Head-Change                         Max.-Flux-Residual
  Residual-Control   Outer-Iter.   Inner-Iter.     Column Row Layer    Maximum-Head-Change  Column Row Layer    Maximum-Flux-Residual          L2-NORM 
          0                 1           2             4    7     1      -0.1274845884E+00       4    7    1        -0.6700623365E+01      0.1432063563E+02
          0                 2           2             5    8     1      -0.6904398111E-02       5    8    1        -0.3794516018E+00      0.9246305828E+00
          0                 3           2             4    7     1      -0.1209508032E-01       4    7    1        -0.6318763026E+00      0.1513478380E+01
          0                 4           2             4    7     1      -0.8827282905E-02       5    8    1        -0.4631486816E+00      0.1132066674E+01
          0                 5           2             4    7     1       0.8586535095E-03       5    8    1         0.4632753871E-01      0.1132288689E+00
          0                 6           1             4    7     1      -0.5847112557E-04       5    8    1        -0.3243432914E-02      0.7927211361E-02

    ------------------------------------------------
       NWT REQUIRED            6 OUTER ITERATIONS 
       AND A TOTAL OF         11 INNER ITERATIONS.
    ------------------------------------------------

 NO OUTPUT CONTROL FOR STRESS PERIOD   44   TIME STEP   23
 
 SOLVING FOR HEAD 
                                                   Max.-Head-Change                         Max.-Flux-Residual
  Residual-Control   Outer-Iter.   Inner-Iter.     Column Row Layer    Maximum-Head-Change  Column Row Layer    Maximum-Flux-Residual          L2-NORM 
          0                 1           2             4    7     1      -0.1258348169E+00       4    7    1        -0.6614439677E+01      0.1416528698E+02
          0                 2           2             5    8     1      -0.7072382685E-02       5    8    1        -0.3885262021E+00      0.9475474545E+00
          0                 3           2             4    7     1      -0.1207862195E-01       4    7    1        -0.6310151072E+00      0.1511294035E+01
          0                 4           2             4    7     1      -0.8828964790E-02       5    8    1        -0.4632388688E+00      0.1132286682E+01
          0                 5           2             4    7     1       0.8588171112E-03       5    8    1         0.4633654417E-01      0.1132508550E+00
          0                 6           1             4    7     1      -0.5848226614E-04       5    8    1        -0.3244062802E-02      0.7928748983E-02

    ------------------------------------------------
       NWT REQUIRED            6 OUTER ITERATIONS 
       AND A TOTAL OF         11 INNER ITERATIONS.
    ------------------------------------------------

 NO OUTPUT CONTROL FOR STRESS PERIOD   44   TIME STEP   24
 
 SOLVING FOR HEAD 
                                                   Max.-Head-Change                         Max.-Flux-Residual
  Residual-Control   Outer-Iter.   Inner-Iter.     Column Row Layer    Maximum-Head-Change  Column Row Layer    Maximum-Flux-Residual          L2-NORM 
          0                 1           2             4    7     1      -0.1241951810E+00       4    7    1        -0.6528719872E+01      0.1401500089E+02
          0                 2           2             5    8     1      -0.7234077628E-02       5    8    1        -0.3972545114E+00      0.9697552690E+00
          0                 3           2             4    7     1      -0.1206226499E-01       4    7    1        -0.6301585344E+00      0.1509164989E+01
          0                 4           2             4    7     1      -0.8830636559E-02       5    8    1        -0.4633256302E+00      0.1132501100E+01
          0                 5           2             4    7     1       0.8589797282E-03       5    8    1         0.4634520784E-01      0.1132722826E+00
          0                 6           1             4    7     1      -0.5849333961E-04       5    8    1        -0.3244668758E-02      0.7930247397E-02

    ------------------------------------------------
       NWT REQUIRED            6 OUTER ITERATIONS 
       AND A TOTAL OF         11 INNER ITERATIONS.
    ------------------------------------------------

 NO OUTPUT CONTROL FOR STRESS PERIOD   44   TIME STEP   25
 
 SOLVING FOR HEAD 
                                                   Max.-Head-Change                         Max.-Flux-Residual
  Residual-Control   Outer-Iter.   Inner-Iter.     Column Row Layer    Maximum-Head-Change  Column Row Layer    Maximum-Flux-Residual          L2-NORM 
          0                 1           2             4    7     1      -0.1225668835E+00       4    7    1        -0.6443533004E+01      0.1386951842E+02
          0                 2           2             5    8     1      -0.7381655396E-02       5    8    1        -0.4051220697E+00      0.9912203627E+00
          0                 3           2             4    7     1      -0.1204601074E-01       4    7    1        -0.6293072750E+00      0.1507088603E+01
          0                 4           2             4    7     1      -0.8832299557E-02       5    8    1        -0.4634038169E+00      0.1132710142E+01
          0                 5           2             4    7     1       0.8591414926E-03       5    8    1         0.4635301464E-01      0.1132931732E+00
          0                 6           1             4    7     1      -0.5850435497E-04       5    8    1        -0.3245214766E-02      0.7931708375E-02

    ------------------------------------------------
       NWT REQUIRED            6 OUTER ITERATIONS 
       AND A TOTAL OF         11 INNER ITERATIONS.
    ------------------------------------------------

 NO OUTPUT CONTROL FOR STRESS PERIOD   44   TIME STEP   26
 
 SOLVING FOR HEAD 
                                                   Max.-Head-Change                         Max.-Flux-Residual
  Residual-Control   Outer-Iter.   Inner-Iter.     Column Row Layer    Maximum-Head-Change  Column Row Layer    Maximum-Flux-Residual          L2-NORM 
          0                 1           2             4    7     1      -0.1209513663E+00       4    7    1        -0.6358940866E+01      0.1372867545E+02
          0                 2           2             5    8     1      -0.7542095171E-02       5    8    1        -0.4137922167E+00      0.1012197886E+01
          0                 3           2             4    7     1      -0.1202990728E-01       4    7    1        -0.6284619476E+00      0.1505064350E+01
          0                 4           2             4    7     1      -0.8833945934E-02       5    8    1        -0.4634900655E+00      0.1132914012E+01
          0                 5           2             4    7     1       0.8593016447E-03       5    8    1         0.4636162852E-01      0.1133135418E+00
          0                 6           1             4    7     1      -0.5851526076E-04       5    8    1        -0.3245817334E-02      0.7933133677E-02

    ------------------------------------------------
       NWT REQUIRED            6 OUTER ITERATIONS 
       AND A TOTAL OF         11 INNER ITERATIONS.
    ------------------------------------------------

 NO OUTPUT CONTROL FOR STRESS PERIOD   44   TIME STEP   27
 
 SOLVING FOR HEAD 
                                                   Max.-Head-Change                         Max.-Flux-Residual
  Residual-Control   Outer-Iter.   Inner-Iter.     Column Row Layer    Maximum-Head-Change  Column Row Layer    Maximum-Flux-Residual          L2-NORM 
          0                 1           2             4    7     1      -0.1193490843E+00       4    7    1        -0.6274998476E+01      0.1359224239E+02
          0                 2           2             5    8     1      -0.7688283798E-02       5    8    1        -0.4216698205E+00      0.1032457560E+01
          0                 3           2             4    7     1      -0.1201392383E-01       4    7    1        -0.6276231017E+00      0.1503089214E+01
          0                 4           2             4    7     1      -0.8835580241E-02       5    8    1        -0.4635684180E+00      0.1133112881E+01
          0                 5           2             4    7     1       0.8594606131E-03       5    8    1         0.4636945335E-01      0.1133334204E+00
          0                 6           1             4    7     1      -0.5852608619E-04       5    8    1        -0.3246364617E-02      0.7934523148E-02

    ------------------------------------------------
       NWT REQUIRED            6 OUTER ITERATIONS 
       AND A TOTAL OF         11 INNER ITERATIONS.
    ------------------------------------------------

 NO OUTPUT CONTROL FOR STRESS PERIOD   44   TIME STEP   28
 
 SOLVING FOR HEAD 
                                                   Max.-Head-Change                         Max.-Flux-Residual
  Residual-Control   Outer-Iter.   Inner-Iter.     Column Row Layer    Maximum-Head-Change  Column Row Layer    Maximum-Flux-Residual          L2-NORM 
          0                 1           2             4    7     1      -0.1177609074E+00       4    7    1        -0.6191748876E+01      0.1345982520E+02
          0                 2           2             5    8     1      -0.7829328080E-02       5    8    1        -0.4292647719E+00      0.1052124556E+01
          0                 3           2             4    7     1      -0.1199808136E-01       4    7    1        -0.6267911678E+00      0.1501161544E+01
          0                 4           2             4    7     1      -0.8837200391E-02       5    8    1        -0.4636439731E+00      0.1133306935E+01
          0                 5           2             4    7     1       0.8596182097E-03       5    8    1         0.4637699913E-01      0.1133528138E+00
          0                 6           1             4    7     1      -0.5853681767E-04       5    8    1        -0.3246892447E-02      0.7935879585E-02

    ------------------------------------------------
       NWT REQUIRED            6 OUTER ITERATIONS 
       AND A TOTAL OF         11 INNER ITERATIONS.
    ------------------------------------------------

 NO OUTPUT CONTROL FOR STRESS PERIOD   44   TIME STEP   29
 
 SOLVING FOR HEAD 
                                                   Max.-Head-Change                         Max.-Flux-Residual
  Residual-Control   Outer-Iter.   Inner-Iter.     Column Row Layer    Maximum-Head-Change  Column Row Layer    Maximum-Flux-Residual          L2-NORM 
          0                 1           2             4    7     1      -0.1161876303E+00       4    7    1        -0.6109237988E+01      0.1333140028E+02
          0                 2           2             5    8     1      -0.7965527726E-02       5    8    1        -0.4365937303E+00      0.1071229576E+01
          0                 3           2             4    7     1      -0.1198238779E-01       4    7    1        -0.6259666056E+00      0.1499279713E+01
          0                 4           2             4    7     1      -0.8838805555E-02       5    8    1        -0.4637168954E+00      0.1133496351E+01
          0                 5           2             4    7     1       0.8597743479E-03       5    8    1         0.4638428222E-01      0.1133717439E+00
          0                 6           1             4    7     1      -0.5854745033E-04       5    8    1        -0.3247401902E-02      0.7937203616E-02

    ------------------------------------------------
       NWT REQUIRED            6 OUTER ITERATIONS 
       AND A TOTAL OF         11 INNER ITERATIONS.
    ------------------------------------------------

 NO OUTPUT CONTROL FOR STRESS PERIOD   44   TIME STEP   30



 STREAM LISTING     PERIOD     44   STEP       30

 LAYER ROW COL. STREAM  RCH.  FLOW INTO     FLOW TO   FLOW OUT OF   OVRLND.     DIRECT     STREAM       STREAM     STREAM     STREAM   STREAMBED  STREAMBED
                SEG.NO.  NO.  STRM. RCH.    AQUIFER    STRM. RCH.    RUNOFF     PRECIP       ET          HEAD       DEPTH      WIDTH   CONDCTNC.   GRADIENT

   1    1    1     1     1    1.9000E+01  2.1427E-01   1.8786E+01  0.000E+00  0.000E+00  0.000E+00  1.09413E+03  1.082E+00  1.166E+01  5.249E-02  1.361E+00
   1    2    2     1     2    1.8786E+01  3.3054E-01   1.8455E+01  0.000E+00  0.000E+00  0.000E+00  1.08914E+03  1.077E+00  1.158E+01  8.107E-02  1.359E+00
   1    3    3     1     3    1.8455E+01  2.8064E-01   1.8175E+01  0.000E+00  0.000E+00  0.000E+00  1.08349E+03  1.072E+00  1.149E+01  6.892E-02  1.357E+00
   1    3    4     1     4    1.8175E+01  2.5740E-01   1.7917E+01  0.000E+00  0.000E+00  0.000E+00  1.07848E+03  1.068E+00  1.140E+01  6.328E-02  1.356E+00
   1    4    5     2     1    1.5917E+01  3.0542E-01   1.5612E+01  0.000E+00  0.000E+00  0.000E+00  1.07285E+03  9.157E-01  1.200E+01  7.800E-02  1.305E+00
   1    5    6     2     2    1.5612E+01  2.3438E-01   1.5377E+01  0.000E+00  0.000E+00  0.000E+00  1.06742E+03  9.063E-01  1.200E+01  6.000E-02  1.302E+00
   1    6    6     2     3    1.5377E+01  2.3388E-01   1.5143E+01  0.000E+00  0.000E+00  0.000E+00  1.06269E+03  8.980E-01  1.200E+01  6.000E-02  1.299E+00
   1    7    6     2     4    1.5143E+01  2.3338E-01   1.4910E+01  0.000E+00  0.000E+00  0.000E+00  1.05797E+03  8.897E-01  1.200E+01  6.000E-02  1.297E+00
   1    8    6     2     5    1.4910E+01  2.3289E-01   1.4677E+01  0.000E+00  0.000E+00  0.000E+00  1.05324E+03  8.814E-01  1.200E+01  6.000E-02  1.294E+00
   1    3    5     3     1    2.0000E+00  2.8252E-01   1.7175E+00  0.000E+00  0.000E+00  0.000E+00  1.07555E+03  1.909E+00  9.636E+00  7.227E-02  1.955E+00
   1    3    6     3     2    1.7175E+00  2.4905E-01   1.4684E+00  0.000E+00  0.000E+00  0.000E+00  1.07264E+03  1.727E+00  8.909E+00  6.682E-02  1.864E+00
   1    3    7     3     3    1.4684E+00  1.9718E-01   1.2712E+00  0.000E+00  0.000E+00  0.000E+00  1.06987E+03  1.555E+00  8.218E+00  5.547E-02  1.777E+00
   1    4    8     3     4    1.2712E+00  2.2567E-01   1.0456E+00  0.000E+00  0.000E+00  0.000E+00  1.06682E+03  1.364E+00  7.455E+00  6.709E-02  1.682E+00
   1    5    8     3     5    1.0456E+00  1.5790E-01   8.8768E-01  0.000E+00  0.000E+00  0.000E+00  1.06362E+03  1.164E+00  6.655E+00  4.991E-02  1.582E+00
   1    6    8     3     6    8.8768E-01  5.5980E-02   8.3170E-01  0.000E+00  0.000E+00  0.000E+00  1.06158E+03  1.036E+00  6.145E+00  1.844E-02  1.518E+00
   1    5   10     4     1    1.0000E+01  9.0919E-02   9.9091E+00  0.000E+00  0.000E+00  0.000E+00  1.07836E+03  6.368E-01  1.000E+01  2.500E-02  1.212E+00
   1    5    9     4     2    9.9091E+00  1.8158E-01   9.7275E+00  0.000E+00  0.000E+00  0.000E+00  1.07154E+03  6.315E-01  1.000E+01  5.000E-02  1.211E+00
   1    6    8     4     3    9.7275E+00  1.2689E-01   9.6006E+00  0.000E+00  0.000E+00  0.000E+00  1.06381E+03  6.256E-01  1.000E+01  3.500E-02  1.209E+00
   1    6    8     5     1    1.0432E+01  2.2686E-01   1.0205E+01  0.000E+00  0.000E+00  0.000E+00  1.05868E+03  6.790E-01  1.542E+01  6.166E-02  1.226E+00
   1    7    7     5     2    1.0205E+01  2.7894E-01   9.9265E+00  0.000E+00  0.000E+00  0.000E+00  1.05417E+03  6.732E-01  1.519E+01  7.594E-02  1.224E+00
   1    8    7     5     3    9.9265E+00  1.9221E-01   9.7343E+00  0.000E+00  0.000E+00  0.000E+00  1.04992E+03  6.676E-01  1.497E+01  5.241E-02  1.223E+00
   1    8    6     5     4    9.7343E+00  1.3577E-01   9.5985E+00  0.000E+00  0.000E+00  0.000E+00  1.04691E+03  6.637E-01  1.482E+01  3.706E-02  1.221E+00
   1    9    6     6     1    2.4276E+01  2.5176E-01   2.4024E+01  0.000E+00  0.000E+00  0.000E+00  1.04392E+03  1.196E+00  1.200E+01  6.000E-02  1.399E+00
   1   10    7     6     2    2.4024E+01  2.5131E-01   2.3773E+01  0.000E+00  0.000E+00  0.000E+00  1.03937E+03  1.188E+00  1.200E+01  6.000E-02  1.396E+00
   1   11    7     6     3    2.3773E+01  2.5086E-01   2.3522E+01  0.000E+00  0.000E+00  0.000E+00  1.03482E+03  1.181E+00  1.200E+01  6.000E-02  1.394E+00
   1   12    7     6     4    2.3522E+01  2.5041E-01   2.3271E+01  0.000E+00  0.000E+00  0.000E+00  1.03026E+03  1.173E+00  1.200E+01  6.000E-02  1.391E+00
   1   13    7     6     5    2.3271E+01  1.1327E-02   2.3260E+01  0.000E+00  0.000E+00  0.000E+00  1.02708E+03  1.170E+00  1.200E+01  2.400E-02  1.573E-01
   1   14    9     7     1    1.5000E+02  1.3735E+00   1.4863E+02  0.000E+00  0.000E+00  0.000E+00  1.03987E+03  2.288E+00  5.529E+01  5.593E-01  8.186E-01
   1   13    8     7     2    1.4863E+02  1.9776E+00   1.4665E+02  0.000E+00  0.000E+00  0.000E+00  1.03478E+03  2.279E+00  5.525E+01  6.147E-01  1.072E+00
   1   13    7     7     3    1.4665E+02  1.7206E+00   1.4493E+02  0.000E+00  0.000E+00  0.000E+00  1.02969E+03  2.269E+00  5.521E+01  5.584E-01  1.027E+00
   1   13    6     8     1    1.6819E+02  1.1514E+00   1.6704E+02  0.000E+00  0.000E+00  0.000E+00  1.02481E+03  2.937E+00  4.258E+01  4.339E-01  8.845E-01
   1   13    5     8     2    1.6704E+02  3.8439E-01   1.6665E+02  0.000E+00  0.000E+00  0.000E+00  1.01856E+03  2.932E+00  4.251E+01  4.332E-01  2.958E-01
   1   13    4     8     3    1.6665E+02 -1.7453E+00   1.6840E+02  0.000E+00  0.000E+00  0.000E+00  1.01231E+03  2.936E+00  4.257E+01  4.338E+00 -1.341E-01
   1   13    3     8     4    1.6840E+02 -3.3048E+00   1.7170E+02  0.000E+00  0.000E+00  0.000E+00  1.00608E+03  2.953E+00  4.281E+01  4.363E+00 -2.525E-01
   1   13    2     8     5    1.7170E+02 -2.4891E+00   1.7419E+02  0.000E+00  0.000E+00  0.000E+00  9.99846E+02  2.971E+00  4.308E+01  4.390E+00 -1.890E-01
   1   13    1     8     6    1.7419E+02 -1.9590E+00   1.7615E+02  0.000E+00  0.000E+00  0.000E+00  9.94861E+02  2.986E+00  4.329E+01  2.647E+00 -2.467E-01





UNSATURATED ZONE PACKAGE VOLUMETRIC BUDGET FOR  TIME STEP    30 STRESS PERIOD   44
  ------------------------------------------------------------------------------



     CUMULATIVE VOLUMES      L**3       RATES FOR THIS TIME STEP      L**3/T
     ------------------                 ------------------------

           IN:                                      IN:
           ---                                      ---
        INFILTRATION =  1678443645.8663          INFILTRATION =          72.6628

          OUT:                                     OUT:
          ----                                     ----
              UZF ET =  1526663026.5021                UZF ET =          58.2420
        UZF RECHARGE =   113780005.8640          UZF RECHARGE =       0.0000E+00

            IN - OUT =    38000613.5002              IN - OUT =          14.4207

          STORAGE:                                 STORAGE:
          --------                                 --------
      STORAGE CHANGE =    38000621.3507        STORAGE CHANGE =          14.4207

 PERCENT DISCREPANCY IS DIFFERENCE BETWEEN IN-OUT MINUS CHANGE IN STORAGE
 DIVIDED BY THE AVERAGE OF IN AND OUT TIMES 100

 PERCENT DISCREPANCY =           0.00     PERCENT DISCREPANCY =           0.00






1
  VOLUMETRIC BUDGET FOR AGRICULTURAL FIELDS AT  END OF TIME STEP   30, STRESS PERIOD  44
  ------------------------------------------------------------------------------

     CUMULATIVE VOLUMES      L**3       RATES FOR THIS TIME STEP      L**3/T
     ------------------                 ------------------------

           IN:                                      IN:
           ---                                      ---
               AG WELLS  =  1582528128.0000                 AG WELLS  =          71.8153
      DIVERSION SEGMENTS =           0.0000        DIVERSION SEGMENTS =           0.0000
           GW IRRIGATION =           0.0000             GW IRRIGATION =           0.0000
           SW IRRIGATION =           0.0000             SW IRRIGATION =           0.0000
        SYSTEM LOSSES GW =           0.0000          SYSTEM LOSSES GW =           0.0000
        SYSTEM LOSSES SW =           0.0000          SYSTEM LOSSES SW =           0.0000

                TOTAL IN =  1582528128.0000                  TOTAL IN =          71.8153

          OUT:                                     OUT:
          ----                                     ----
               AG WELLS  =           0.0000                 AG WELLS  =           0.0000
      DIVERSION SEGMENTS =           0.0000        DIVERSION SEGMENTS =           0.0000
           GW IRRIGATION =  1582528128.0000             GW IRRIGATION =          71.8153
           SW IRRIGATION =           0.0000             SW IRRIGATION =           0.0000
        SYSTEM LOSSES GW =           0.0000          SYSTEM LOSSES GW =           0.0000
        SYSTEM LOSSES SW =           0.0000          SYSTEM LOSSES SW =           0.0000

               TOTAL OUT =  1582528128.0000                 TOTAL OUT =          71.8153

                IN - OUT =           0.0000                  IN - OUT =           0.0000

     PERCENT DISCREPANCY =           0.00         PERCENT DISCREPANCY =           0.00



1
  VOLUMETRIC BUDGET FOR ENTIRE MODEL AT END OF TIME STEP   30, STRESS PERIOD  44
  ------------------------------------------------------------------------------

     CUMULATIVE VOLUMES      L**3       RATES FOR THIS TIME STEP      L**3/T
     ------------------                 ------------------------

           IN:                                      IN:
           ---                                      ---
             STORAGE     =  2031505664.0000               STORAGE     =          68.9854
       CONSTANT HEAD     =           0.0000         CONSTANT HEAD     =           0.0000
     HEAD DEP BOUNDS     =    32387854.0000       HEAD DEP BOUNDS     =           0.2883
      STREAM LEAKAGE     =  1386476672.0000        STREAM LEAKAGE     =          12.3474
        UZF RECHARGE     =   113780112.0000          UZF RECHARGE     =           0.0000
               GW ET     =           0.0000                 GW ET     =           0.0000
     SURFACE LEAKAGE     =           0.0000       SURFACE LEAKAGE     =           0.0000
           AG WELLS      =           0.0000             AG WELLS      =           0.0000

                TOTAL IN =  3564150272.0000                  TOTAL IN =          81.6211

          OUT:                                     OUT:
          ----                                     ----
             STORAGE     =   783399872.0000               STORAGE     =       1.8115E-02
       CONSTANT HEAD     =           0.0000         CONSTANT HEAD     =           0.0000
     HEAD DEP BOUNDS     =    33031878.0000       HEAD DEP BOUNDS     =           0.2888
      STREAM LEAKAGE     =  1147571072.0000        STREAM LEAKAGE     =           9.4981
        UZF RECHARGE     =           0.0000          UZF RECHARGE     =           0.0000
               GW ET     =    17607600.0000                 GW ET     =           0.0000
     SURFACE LEAKAGE     =           0.0000       SURFACE LEAKAGE     =           0.0000
           AG WELLS      =  1582528128.0000             AG WELLS      =          71.8153

               TOTAL OUT =  3564138496.0000                 TOTAL OUT =          81.6203

                IN - OUT =       11776.0000                  IN - OUT =       7.8583E-04

     PERCENT DISCREPANCY =           0.00         PERCENT DISCREPANCY =           0.00






         TIME SUMMARY AT END OF TIME STEP   30 IN STRESS PERIOD   44
                    SECONDS     MINUTES      HOURS       DAYS        YEARS
                    -----------------------------------------------------------
   TIME STEP LENGTH  87667.      1461.1      24.352      1.0147     2.77799E-03
 STRESS PERIOD TIME 2.63000E+06  43833.      730.56      30.440     8.33397E-02
         TOTAL TIME 1.13175E+08 1.88626E+06  31438.      1309.9      3.5863    
1
1
                            STRESS PERIOD NO.   45, LENGTH =   2630000.    
                            -----------------------------------------------

                              NUMBER OF TIME STEPS =    30

                               MULTIPLIER FOR DELT =     1.000

                            INITIAL TIME STEP SIZE =   87666.66    

 REUSING NON-PARAMETER GHB CELLS FROM LAST STRESS PERIOD

      2 GHB CELLS

 REUSING STREAM SEGMENT DATA FROM LAST STRESS PERIOD



            AREAL INFILTRATION RATE
 READING ON UNIT   19 WITH FORMAT: (FREE)              

            1           2           3           4           5           6           7           8           9          10
 ........................................................................................................................
   1   1.0000E-10  2.0000E-10   0.000       0.000       0.000       0.000       0.000       0.000       0.000       0.000    
   2   2.0000E-10  1.0000E-10  2.0000E-10   0.000       0.000      8.0000E-10  8.0000E-10  5.0000E-10   0.000       0.000    
   3    0.000      5.0000E-10  1.0000E-10  1.0000E-10  8.0000E-10  8.0000E-10  5.0000E-10  5.0000E-10   0.000       0.000    
   4   8.0000E-10  5.0000E-10  1.0000E-10  1.0000E-10  1.0000E-10  1.0000E-10  1.0000E-10  1.0000E-10  2.0000E-10   0.000    
   5   8.0000E-10  5.0000E-10  1.0000E-10  1.0000E-10  1.0000E-10  1.0000E-10  1.0000E-10  1.0000E-10  1.0000E-10  1.0000E-10
   6   8.0000E-10  5.0000E-10  5.0000E-10  2.0000E-10  2.0000E-10  1.0000E-10  1.0000E-10  1.0000E-10  1.0000E-10  5.0000E-10
   7   8.0000E-10  5.0000E-10  5.0000E-10  2.0000E-10  2.0000E-10  1.0000E-10  1.0000E-10  2.0000E-10  2.0000E-10   0.000    
   8    0.000      5.0000E-10  5.0000E-10  2.0000E-10  2.0000E-10  1.0000E-10  1.0000E-10  2.0000E-10  5.0000E-10   0.000    
   9    0.000      5.0000E-10  5.0000E-10  2.0000E-10  2.0000E-10  1.0000E-10  1.0000E-10  2.0000E-10  5.0000E-10   0.000    
  10    0.000      5.0000E-10  5.0000E-10  2.0000E-10  2.0000E-10  1.0000E-10  1.0000E-10  2.0000E-10  5.0000E-10  8.0000E-10
  11    0.000      1.0000E-10  1.0000E-10  1.0000E-10  1.0000E-10  1.0000E-10  1.0000E-10  2.0000E-10  5.0000E-10   0.000    
  12   1.0000E-10  1.0000E-10  1.0000E-10  1.0000E-10  1.0000E-10  1.0000E-10  1.0000E-10  1.0000E-10  2.0000E-10   0.000    
  13   1.0000E-10  1.0000E-10  2.0000E-10  2.0000E-10  2.0000E-10  2.0000E-10  2.0000E-10  1.0000E-10  1.0000E-10   0.000    
  14    0.000      2.0000E-10  5.0000E-10  5.0000E-10  5.0000E-10  5.0000E-10  5.0000E-10  2.0000E-10  1.0000E-10   0.000    
  15    0.000       0.000      8.0000E-10  8.0000E-10  8.0000E-10  8.0000E-10   0.000       0.000       0.000       0.000    

                  ET RATE =  3.250000E-07

 USING ET EXTINCTION DEPTH FROM PREVIOUS STRESS PERIOD. CURRENT PERIOD IS:      45

 USING EXTINCTION WATER CONTENT FROM PREVIOUS STRESS PERIOD. CURRENT PERIOD IS:      45

 USING AIR ENTRY PRESSURE FROM PREVIOUS STRESS PERIOD. CURRENT PERIOD IS:      45

 USING ROOT PRESSURE HEAD FROM PREVIOUS STRESS PERIOD. CURRENT PERIOD IS:      45

 USING ROOT ACTIVITY FROM PREVIOUS STRESS PERIOD. CURRENT PERIOD IS:      45

 PROCESSING AG STRESS PERIOD DATA

 READING AG STRESS PERIOD DATA

 READING IRRIGATION WELL

 END PROCESSING AG STRESS PERIOD DATA OPTIONS
 
 SOLVING FOR HEAD 
                                                   Max.-Head-Change                         Max.-Flux-Residual
  Residual-Control   Outer-Iter.   Inner-Iter.     Column Row Layer    Maximum-Head-Change  Column Row Layer    Maximum-Flux-Residual          L2-NORM 
          0                 1           2             4    7     1      -0.7871101378E-01       4    7    1        -0.4152485369E+01      0.9591378271E+01
          0                 2           2             4    7     1       0.7625247154E-02       4    7    1         0.4132761862E+00      0.9588857180E+00
          0                 3           2             4    7     1      -0.5192525610E-03       4    7    1        -0.2892944410E-01      0.6712209113E-01
          0                 4           1             4    7     1       0.2066153886E-04       4    7    1         0.1183215465E-02      0.2745299734E-02

    ------------------------------------------------
       NWT REQUIRED            4 OUTER ITERATIONS 
       AND A TOTAL OF          7 INNER ITERATIONS.
    ------------------------------------------------

 NO OUTPUT CONTROL FOR STRESS PERIOD   45   TIME STEP    1
 
 SOLVING FOR HEAD 
                                                   Max.-Head-Change                         Max.-Flux-Residual
  Residual-Control   Outer-Iter.   Inner-Iter.     Column Row Layer    Maximum-Head-Change  Column Row Layer    Maximum-Flux-Residual          L2-NORM 
          0                 1           2             4    7     1      -0.7761367077E-01       4    7    1        -0.4091232952E+01      0.9523051731E+01
          0                 2           2             4    7     1       0.7549544079E-02       4    7    1         0.4091131209E+00      0.9522986513E+00
          0                 3           2             4    7     1      -0.5140974274E-03       4    7    1        -0.2863802710E-01      0.6666099301E-01
          0                 4           1             4    7     1       0.2045641129E-04       4    7    1         0.1171296491E-02      0.2726437543E-02

    ------------------------------------------------
       NWT REQUIRED            4 OUTER ITERATIONS 
       AND A TOTAL OF          7 INNER ITERATIONS.
    ------------------------------------------------

 NO OUTPUT CONTROL FOR STRESS PERIOD   45   TIME STEP    2
 
 SOLVING FOR HEAD 
                                                   Max.-Head-Change                         Max.-Flux-Residual
  Residual-Control   Outer-Iter.   Inner-Iter.     Column Row Layer    Maximum-Head-Change  Column Row Layer    Maximum-Flux-Residual          L2-NORM 
          0                 1           2             4    7     1      -0.7652659723E-01       4    7    1        -0.4032558017E+01      0.9458356465E+01
          0                 2           2             4    7     1       0.7443807116E-02       4    7    1         0.4032460165E+00      0.9458293536E+00
          0                 3           2             4    7     1      -0.5068970770E-03       4    7    1        -0.2822732593E-01      0.6620814140E-01
          0                 4           1             4    7     1       0.2016990279E-04       4    7    1         0.1154498815E-02      0.2707916071E-02

    ------------------------------------------------
       NWT REQUIRED            4 OUTER ITERATIONS 
       AND A TOTAL OF          7 INNER ITERATIONS.
    ------------------------------------------------

 NO OUTPUT CONTROL FOR STRESS PERIOD   45   TIME STEP    3
 
 SOLVING FOR HEAD 
                                                   Max.-Head-Change                         Max.-Flux-Residual
  Residual-Control   Outer-Iter.   Inner-Iter.     Column Row Layer    Maximum-Head-Change  Column Row Layer    Maximum-Flux-Residual          L2-NORM 
          0                 1           2             4    7     1      -0.7547987513E-01       4    7    1        -0.3976076956E+01      0.9396874871E+01
          0                 2           2             4    7     1       0.7341994985E-02       4    7    1         0.3975982811E+00      0.9396814017E+00
          0                 3           2             4    7     1      -0.4999639956E-03       4    7    1        -0.2783198078E-01      0.6577778167E-01
          0                 4           1             4    7     1       0.1989402920E-04       4    7    1         0.1138329185E-02      0.2690314985E-02

    ------------------------------------------------
       NWT REQUIRED            4 OUTER ITERATIONS 
       AND A TOTAL OF          7 INNER ITERATIONS.
    ------------------------------------------------

 NO OUTPUT CONTROL FOR STRESS PERIOD   45   TIME STEP    4
 
 SOLVING FOR HEAD 
                                                   Max.-Head-Change                         Max.-Flux-Residual
  Residual-Control   Outer-Iter.   Inner-Iter.     Column Row Layer    Maximum-Head-Change  Column Row Layer    Maximum-Flux-Residual          L2-NORM 
          0                 1           2             4    7     1      -0.7447162273E-01       4    7    1        -0.3921688160E+01      0.9338283409E+01
          0                 2           2             4    7     1       0.7243924655E-02       4    7    1         0.3921597549E+00      0.9338224446E+00
          0                 3           2             4    7     1      -0.4932857195E-03       4    7    1        -0.2745128044E-01      0.6536765341E-01
          0                 4           1             4    7     1       0.1962829478E-04       4    7    1         0.1122758536E-02      0.2673540443E-02

    ------------------------------------------------
       NWT REQUIRED            4 OUTER ITERATIONS 
       AND A TOTAL OF          7 INNER ITERATIONS.
    ------------------------------------------------

 NO OUTPUT CONTROL FOR STRESS PERIOD   45   TIME STEP    5
 
 SOLVING FOR HEAD 
                                                   Max.-Head-Change                         Max.-Flux-Residual
  Residual-Control   Outer-Iter.   Inner-Iter.     Column Row Layer    Maximum-Head-Change  Column Row Layer    Maximum-Flux-Residual          L2-NORM 
          0                 1           2             4    7     1      -0.7350028802E-01       4    7    1        -0.3869308475E+01      0.9282293006E+01
          0                 2           2             4    7     1       0.7149445165E-02       4    7    1         0.3869221228E+00      0.9282235787E+00
          0                 3           2             4    7     1      -0.4868519683E-03       4    7    1        -0.2708464284E-01      0.6497573210E-01
          0                 4           1             4    7     1       0.1937228979E-04       4    7    1         0.1107763050E-02      0.2657510885E-02

    ------------------------------------------------
       NWT REQUIRED            4 OUTER ITERATIONS 
       AND A TOTAL OF          7 INNER ITERATIONS.
    ------------------------------------------------

 NO OUTPUT CONTROL FOR STRESS PERIOD   45   TIME STEP    6
 
 SOLVING FOR HEAD 
                                                   Max.-Head-Change                         Max.-Flux-Residual
  Residual-Control   Outer-Iter.   Inner-Iter.     Column Row Layer    Maximum-Head-Change  Column Row Layer    Maximum-Flux-Residual          L2-NORM 
          0                 1           2             4    7     1      -0.7256385080E-01       4    7    1        -0.3818828598E+01      0.9228644597E+01
          0                 2           2             4    7     1       0.7058360020E-02       4    7    1         0.3818744557E+00      0.9228588942E+00
          0                 3           2             4    7     1      -0.4806493626E-03       4    7    1        -0.2673130297E-01      0.6460019925E-01
          0                 4           1             4    7     1       0.1912548270E-04       4    7    1         0.1093311454E-02      0.2642151662E-02

    ------------------------------------------------
       NWT REQUIRED            4 OUTER ITERATIONS 
       AND A TOTAL OF          7 INNER ITERATIONS.
    ------------------------------------------------

 NO OUTPUT CONTROL FOR STRESS PERIOD   45   TIME STEP    7
 
 SOLVING FOR HEAD 
                                                   Max.-Head-Change                         Max.-Flux-Residual
  Residual-Control   Outer-Iter.   Inner-Iter.     Column Row Layer    Maximum-Head-Change  Column Row Layer    Maximum-Flux-Residual          L2-NORM 
          0                 1           2             4    7     1      -0.7166103287E-01       4    7    1        -0.3770179811E+01      0.9177125710E+01
          0                 2           2             4    7     1       0.6970544892E-02       4    7    1         0.3770098821E+00      0.9177071610E+00
          0                 3           2             4    7     1      -0.4746694343E-03       4    7    1        -0.2639077977E-01      0.6423957793E-01
          0                 4           1             4    7     1       0.1888753594E-04       4    7    1         0.1079384047E-02      0.2627404264E-02

    ------------------------------------------------
       NWT REQUIRED            4 OUTER ITERATIONS 
       AND A TOTAL OF          7 INNER ITERATIONS.
    ------------------------------------------------

 NO OUTPUT CONTROL FOR STRESS PERIOD   45   TIME STEP    8
 
 SOLVING FOR HEAD 
                                                   Max.-Head-Change                         Max.-Flux-Residual
  Residual-Control   Outer-Iter.   Inner-Iter.     Column Row Layer    Maximum-Head-Change  Column Row Layer    Maximum-Flux-Residual          L2-NORM 
          0                 1           2             4    7     1      -0.7079020787E-01       4    7    1        -0.3723274218E+01      0.9127539343E+01
          0                 2           2             4    7     1       0.6885841593E-02       4    7    1         0.3723196133E+00      0.9127486780E+00
          0                 3           2             4    7     1      -0.4689014121E-03       4    7    1        -0.2606245807E-01      0.6389248231E-01
          0                 4           1             4    7     1       0.1865802089E-04       4    7    1         0.1065955666E-02      0.2613205079E-02

    ------------------------------------------------
       NWT REQUIRED            4 OUTER ITERATIONS 
       AND A TOTAL OF          7 INNER ITERATIONS.
    ------------------------------------------------

 NO OUTPUT CONTROL FOR STRESS PERIOD   45   TIME STEP    9
 
 SOLVING FOR HEAD 
                                                   Max.-Head-Change                         Max.-Flux-Residual
  Residual-Control   Outer-Iter.   Inner-Iter.     Column Row Layer    Maximum-Head-Change  Column Row Layer    Maximum-Flux-Residual          L2-NORM 
          0                 1           2             4    7     1      -0.6994969330E-01       4    7    1        -0.3678020290E+01      0.9079710153E+01
          0                 2           2             4    7     1       0.6804086472E-02       4    7    1         0.3677944971E+00      0.9079642897E+00
          0                 3           2             4    7     1      -0.4633341523E-03       4    7    1        -0.2574569718E-01      0.6355757453E-01
          0                 4           1             4    7     1       0.1843649455E-04       4    7    1         0.1053000147E-02      0.2599508107E-02

    ------------------------------------------------
       NWT REQUIRED            4 OUTER ITERATIONS 
       AND A TOTAL OF          7 INNER ITERATIONS.
    ------------------------------------------------

 NO OUTPUT CONTROL FOR STRESS PERIOD   45   TIME STEP   10
 
 SOLVING FOR HEAD 
                                                   Max.-Head-Change                         Max.-Flux-Residual
  Residual-Control   Outer-Iter.   Inner-Iter.     Column Row Layer    Maximum-Head-Change  Column Row Layer    Maximum-Flux-Residual          L2-NORM 
          0                 1           2             4    7     1      -0.6913827408E-01       4    7    1        -0.3634352395E+01      0.9033491673E+01
          0                 2           2             4    7     1       0.6725161343E-02       4    7    1         0.3634279709E+00      0.9033441584E+00
          0                 3           2             4    7     1      -0.4579596064E-03       4    7    1        -0.2544003774E-01      0.6323416500E-01
          0                 4           1             4    7     1       0.1822263674E-04       4    7    1         0.1040498680E-02      0.2586281064E-02

    ------------------------------------------------
       NWT REQUIRED            4 OUTER ITERATIONS 
       AND A TOTAL OF          7 INNER ITERATIONS.
    ------------------------------------------------

 NO OUTPUT CONTROL FOR STRESS PERIOD   45   TIME STEP   11
 
 SOLVING FOR HEAD 
                                                   Max.-Head-Change                         Max.-Flux-Residual
  Residual-Control   Outer-Iter.   Inner-Iter.     Column Row Layer    Maximum-Head-Change  Column Row Layer    Maximum-Flux-Residual          L2-NORM 
          0                 1           2             4    7     1      -0.6835452317E-01       4    7    1        -0.3592193124E+01      0.8988752031E+01
          0                 2           2             4    7     1       0.6648927403E-02       4    7    1         0.3592122944E+00      0.8988703025E+00
          0                 3           2             4    7     1      -0.4527683216E-03       4    7    1        -0.2514493787E-01      0.6292099243E-01
          0                 4           1             4    7     1       0.1801607077E-04       4    7    1         0.1028429079E-02      0.2573472054E-02

    ------------------------------------------------
       NWT REQUIRED            4 OUTER ITERATIONS 
       AND A TOTAL OF          7 INNER ITERATIONS.
    ------------------------------------------------

 NO OUTPUT CONTROL FOR STRESS PERIOD   45   TIME STEP   12
 
 SOLVING FOR HEAD 
                                                   Max.-Head-Change                         Max.-Flux-Residual
  Residual-Control   Outer-Iter.   Inner-Iter.     Column Row Layer    Maximum-Head-Change  Column Row Layer    Maximum-Flux-Residual          L2-NORM 
          0                 1           2             4    7     1      -0.6759708291E-01       4    7    1        -0.3551468484E+01      0.8945377952E+01
          0                 2           2             4    7     1       0.6575252597E-02       4    7    1         0.3551400692E+00      0.8945330100E+00
          0                 3           2             4    7     1      -0.4477513065E-03       4    7    1        -0.2485987972E-01      0.6261738103E-01
          0                 4           1             4    7     1       0.1781643917E-04       4    7    1         0.1016770197E-02      0.2561054116E-02

    ------------------------------------------------
       NWT REQUIRED            4 OUTER ITERATIONS 
       AND A TOTAL OF          7 INNER ITERATIONS.
    ------------------------------------------------

 NO OUTPUT CONTROL FOR STRESS PERIOD   45   TIME STEP   13
 
 SOLVING FOR HEAD 
                                                   Max.-Head-Change                         Max.-Flux-Residual
  Residual-Control   Outer-Iter.   Inner-Iter.     Column Row Layer    Maximum-Head-Change  Column Row Layer    Maximum-Flux-Residual          L2-NORM 
          0                 1           2             4    7     1      -0.6686479253E-01       4    7    1        -0.3512115278E+01      0.8903255399E+01
          0                 2           2             4    7     1       0.6504024024E-02       4    7    1         0.3512049758E+00      0.8903208501E+00
          0                 3           2             4    7     1      -0.4429008722E-03       4    7    1        -0.2458442091E-01      0.6232252787E-01
          0                 4           1             4    7     1       0.1762343592E-04       4    7    1         0.1005503929E-02      0.2548994263E-02

    ------------------------------------------------
       NWT REQUIRED            4 OUTER ITERATIONS 
       AND A TOTAL OF          7 INNER ITERATIONS.
    ------------------------------------------------

 NO OUTPUT CONTROL FOR STRESS PERIOD   45   TIME STEP   14
 
 SOLVING FOR HEAD 
                                                   Max.-Head-Change                         Max.-Flux-Residual
  Residual-Control   Outer-Iter.   Inner-Iter.     Column Row Layer    Maximum-Head-Change  Column Row Layer    Maximum-Flux-Residual          L2-NORM 
          0                 1           2             4    7     1      -0.6615627867E-01       4    7    1        -0.3474058924E+01      0.8862290278E+01
          0                 2           2             4    7     1       0.6435108101E-02       4    7    1         0.3473995568E+00      0.8862244283E+00
          0                 3           2             4    7     1      -0.4382079228E-03       4    7    1        -0.2431803943E-01      0.6203577740E-01
          0                 4           1             4    7     1       0.1743669953E-04       4    7    1         0.9946089212E-03      0.2537266385E-02

    ------------------------------------------------
       NWT REQUIRED            4 OUTER ITERATIONS 
       AND A TOTAL OF          7 INNER ITERATIONS.
    ------------------------------------------------

 NO OUTPUT CONTROL FOR STRESS PERIOD   45   TIME STEP   15
 
 SOLVING FOR HEAD 
                                                   Max.-Head-Change                         Max.-Flux-Residual
  Residual-Control   Outer-Iter.   Inner-Iter.     Column Row Layer    Maximum-Head-Change  Column Row Layer    Maximum-Flux-Residual          L2-NORM 
          0                 1           2             4    7     1      -0.6547076665E-01       4    7    1        -0.3437256998E+01      0.8822412557E+01
          0                 2           2             4    7     1       0.6368429479E-02       4    7    1         0.3437195702E+00      0.8822367425E+00
          0                 3           2             4    7     1      -0.4336673261E-03       4    7    1        -0.2406043830E-01      0.6175663885E-01
          0                 4           1             4    7     1       0.1725602483E-04       4    7    1         0.9840730186E-03      0.2525848689E-02

    ------------------------------------------------
       NWT REQUIRED            4 OUTER ITERATIONS 
       AND A TOTAL OF          7 INNER ITERATIONS.
    ------------------------------------------------

 NO OUTPUT CONTROL FOR STRESS PERIOD   45   TIME STEP   16
 
 SOLVING FOR HEAD 
                                                   Max.-Head-Change                         Max.-Flux-Residual
  Residual-Control   Outer-Iter.   Inner-Iter.     Column Row Layer    Maximum-Head-Change  Column Row Layer    Maximum-Flux-Residual          L2-NORM 
          0                 1           2             4    7     1      -0.6480685400E-01       4    7    1        -0.3401633349E+01      0.8783535651E+01
          0                 2           2             4    7     1       0.6303851745E-02       4    7    1         0.3401574016E+00      0.8783491338E+00
          0                 3           2             4    7     1      -0.4292697938E-03       4    7    1        -0.2381108453E-01      0.6148450617E-01
          0                 4           1             4    7     1       0.1708104308E-04       4    7    1         0.9738744463E-03      0.2514720687E-02

    ------------------------------------------------
       NWT REQUIRED            4 OUTER ITERATIONS 
       AND A TOTAL OF          7 INNER ITERATIONS.
    ------------------------------------------------

 NO OUTPUT CONTROL FOR STRESS PERIOD   45   TIME STEP   17
 
 SOLVING FOR HEAD 
                                                   Max.-Head-Change                         Max.-Flux-Residual
  Residual-Control   Outer-Iter.   Inner-Iter.     Column Row Layer    Maximum-Head-Change  Column Row Layer    Maximum-Flux-Residual          L2-NORM 
          0                 1           2             4    7     1      -0.6416361223E-01       4    7    1        -0.3367136848E+01      0.8745599192E+01
          0                 2           2             4    7     1       0.6241284589E-02       4    7    1         0.3367079383E+00      0.8745555626E+00
          0                 3           2             4    7     1      -0.4250091761E-03       4    7    1        -0.2356962024E-01      0.6121895369E-01
          0                 4           1             4    7     1       0.1691150917E-04       4    7    1         0.9639985599E-03      0.2548299741E-02

    ------------------------------------------------
       NWT REQUIRED            4 OUTER ITERATIONS 
       AND A TOTAL OF          7 INNER ITERATIONS.
    ------------------------------------------------

 NO OUTPUT CONTROL FOR STRESS PERIOD   45   TIME STEP   18
 
 SOLVING FOR HEAD 
                                                   Max.-Head-Change                         Max.-Flux-Residual
  Residual-Control   Outer-Iter.   Inner-Iter.     Column Row Layer    Maximum-Head-Change  Column Row Layer    Maximum-Flux-Residual          L2-NORM 
          0                 1           2             4    7     1      -0.6354015151E-01       4    7    1        -0.3333719347E+01      0.8708542773E+01
          0                 2           2             4    7     1       0.6180641462E-02       4    7    1         0.3333663663E+00      0.8708499960E+00
          0                 3           2             4    7     1      -0.4208795786E-03       4    7    1        -0.2333570842E-01      0.6095956444E-01
          0                 4           1             4    7     1       0.1674718859E-04       4    7    1         0.9544315535E-03      0.2493249778E-02

    ------------------------------------------------
       NWT REQUIRED            4 OUTER ITERATIONS 
       AND A TOTAL OF          7 INNER ITERATIONS.
    ------------------------------------------------

 NO OUTPUT CONTROL FOR STRESS PERIOD   45   TIME STEP   19
 
 SOLVING FOR HEAD 
                                                   Max.-Head-Change                         Max.-Flux-Residual
  Residual-Control   Outer-Iter.   Inner-Iter.     Column Row Layer    Maximum-Head-Change  Column Row Layer    Maximum-Flux-Residual          L2-NORM 
          0                 1           2             4    7     1      -0.6293536827E-01       4    7    1        -0.3301320323E+01      0.8672312595E+01
          0                 2           2             4    7     1       0.6121815024E-02       4    7    1         0.3301266337E+00      0.8672270481E+00
          0                 3           2             4    7     1      -0.4168736919E-03       4    7    1        -0.2310892542E-01      0.6070595672E-01
          0                 4           1             4    7     1       0.1658779108E-04       4    7    1         0.9451561359E-03      0.2482876912E-02

    ------------------------------------------------
       NWT REQUIRED            4 OUTER ITERATIONS 
       AND A TOTAL OF          7 INNER ITERATIONS.
    ------------------------------------------------

 NO OUTPUT CONTROL FOR STRESS PERIOD   45   TIME STEP   20
 
 SOLVING FOR HEAD 
                                                   Max.-Head-Change                         Max.-Flux-Residual
  Residual-Control   Outer-Iter.   Inner-Iter.     Column Row Layer    Maximum-Head-Change  Column Row Layer    Maximum-Flux-Residual          L2-NORM 
          0                 1           2             4    7     1      -0.6234861254E-01       4    7    1        -0.3269904130E+01      0.8636863443E+01
          0                 2           2             4    7     1       0.6064742055E-02       4    7    1         0.3269851762E+00      0.8636821984E+00
          0                 3           2             4    7     1      -0.4129872112E-03       4    7    1        -0.2288902178E-01      0.6045781404E-01
          0                 4           1             4    7     1       0.1643314444E-04       4    7    1         0.9361620637E-03      0.2472740380E-02

    ------------------------------------------------
       NWT REQUIRED            4 OUTER ITERATIONS 
       AND A TOTAL OF          7 INNER ITERATIONS.
    ------------------------------------------------

 NO OUTPUT CONTROL FOR STRESS PERIOD   45   TIME STEP   21
 
 SOLVING FOR HEAD 
                                                   Max.-Head-Change                         Max.-Flux-Residual
  Residual-Control   Outer-Iter.   Inner-Iter.     Column Row Layer    Maximum-Head-Change  Column Row Layer    Maximum-Flux-Residual          L2-NORM 
          0                 1           2             4    7     1      -0.6177873836E-01       4    7    1        -0.3239408303E+01      0.8602153781E+01
          0                 2           2             4    7     1       0.6009311092E-02       4    7    1         0.3239357478E+00      0.8602112967E+00
          0                 3           2             4    7     1      -0.4092125457E-03       4    7    1        -0.2267556022E-01      0.6021485253E-01
          0                 4           1             4    7     1       0.1628294678E-04       4    7    1         0.9274314741E-03      0.2462823866E-02

    ------------------------------------------------
       NWT REQUIRED            4 OUTER ITERATIONS 
       AND A TOTAL OF          7 INNER ITERATIONS.
    ------------------------------------------------

 NO OUTPUT CONTROL FOR STRESS PERIOD   45   TIME STEP   22
 
 SOLVING FOR HEAD 
                                                   Max.-Head-Change                         Max.-Flux-Residual
  Residual-Control   Outer-Iter.   Inner-Iter.     Column Row Layer    Maximum-Head-Change  Column Row Layer    Maximum-Flux-Residual          L2-NORM 
          0                 1           2             4    7     1      -0.6122518659E-01       4    7    1        -0.3209802183E+01      0.8568139749E+01
          0                 2           2             4    7     1       0.5955467750E-02       4    7    1         0.3209752829E+00      0.8568099542E+00
          0                 3           2             4    7     1      -0.4055459930E-03       4    7    1        -0.2246832621E-01      0.5997675691E-01
          0                 4           1             4    7     1       0.1613705156E-04       4    7    1         0.9189556042E-03      0.2453052737E-02

    ------------------------------------------------
       NWT REQUIRED            4 OUTER ITERATIONS 
       AND A TOTAL OF          7 INNER ITERATIONS.
    ------------------------------------------------

 NO OUTPUT CONTROL FOR STRESS PERIOD   45   TIME STEP   23
 
 SOLVING FOR HEAD 
                                                   Max.-Head-Change                         Max.-Flux-Residual
  Residual-Control   Outer-Iter.   Inner-Iter.     Column Row Layer    Maximum-Head-Change  Column Row Layer    Maximum-Flux-Residual          L2-NORM 
          0                 1           2             4    7     1      -0.6068716676E-01       4    7    1        -0.3181042399E+01      0.8534793177E+01
          0                 2           2             4    7     1       0.5903135146E-02       4    7    1         0.3180994449E+00      0.8534753571E+00
          0                 3           2             4    7     1      -0.4019823167E-03       4    7    1        -0.2226701613E-01      0.5974333455E-01
          0                 4           1             4    7     1       0.1599524982E-04       4    7    1         0.9107220303E-03      0.2443505700E-02

    ------------------------------------------------
       NWT REQUIRED            4 OUTER ITERATIONS 
       AND A TOTAL OF          7 INNER ITERATIONS.
    ------------------------------------------------

 NO OUTPUT CONTROL FOR STRESS PERIOD   45   TIME STEP   24
 
 SOLVING FOR HEAD 
                                                   Max.-Head-Change                         Max.-Flux-Residual
  Residual-Control   Outer-Iter.   Inner-Iter.     Column Row Layer    Maximum-Head-Change  Column Row Layer    Maximum-Flux-Residual          L2-NORM 
          0                 1           2             4    7     1      -0.6016392819E-01       4    7    1        -0.3153087964E+01      0.8502081164E+01
          0                 2           2             4    7     1       0.5852240261E-02       4    7    1         0.3153041353E+00      0.8502042141E+00
          0                 3           2             4    7     1      -0.3985165447E-03       4    7    1        -0.2207134312E-01      0.5951435551E-01
          0                 4           1             4    7     1       0.1585734365E-04       4    7    1         0.9027190006E-03      0.2434188825E-02

    ------------------------------------------------
       NWT REQUIRED            4 OUTER ITERATIONS 
       AND A TOTAL OF          7 INNER ITERATIONS.
    ------------------------------------------------

 NO OUTPUT CONTROL FOR STRESS PERIOD   45   TIME STEP   25
 
 SOLVING FOR HEAD 
                                                   Max.-Head-Change                         Max.-Flux-Residual
  Residual-Control   Outer-Iter.   Inner-Iter.     Column Row Layer    Maximum-Head-Change  Column Row Layer    Maximum-Flux-Residual          L2-NORM 
          0                 1           2             4    7     1      -0.5965475841E-01       4    7    1        -0.3125899954E+01      0.8469965680E+01
          0                 2           2             4    7     1       0.5802713798E-02       4    7    1         0.3125854623E+00      0.8469927170E+00
          0                 3           2             4    7     1      -0.3951439576E-03       4    7    1        -0.2188103469E-01      0.5928954672E-01
          0                 4           1             4    7     1       0.1572314527E-04       4    7    1         0.8949353801E-03      0.2424945555E-02

    ------------------------------------------------
       NWT REQUIRED            4 OUTER ITERATIONS 
       AND A TOTAL OF          7 INNER ITERATIONS.
    ------------------------------------------------

 NO OUTPUT CONTROL FOR STRESS PERIOD   45   TIME STEP   26
 
 SOLVING FOR HEAD 
                                                   Max.-Head-Change                         Max.-Flux-Residual
  Residual-Control   Outer-Iter.   Inner-Iter.     Column Row Layer    Maximum-Head-Change  Column Row Layer    Maximum-Flux-Residual          L2-NORM 
          0                 1           2             4    7     1      -0.5915912015E-01       4    7    1        -0.3099448614E+01      0.8438430919E+01
          0                 2           2             4    7     1       0.5754503500E-02       4    7    1         0.3099404504E+00      0.8438392960E+00
          0                 3           2             4    7     1      -0.3918609977E-03       4    7    1        -0.2169588265E-01      0.5906880929E-01
          0                 4           1             4    7     1       0.1559251298E-04       4    7    1         0.8873626434E-03      0.2415917799E-02

    ------------------------------------------------
       NWT REQUIRED            4 OUTER ITERATIONS 
       AND A TOTAL OF          7 INNER ITERATIONS.
    ------------------------------------------------

 NO OUTPUT CONTROL FOR STRESS PERIOD   45   TIME STEP   27
 
 SOLVING FOR HEAD 
                                                   Max.-Head-Change                         Max.-Flux-Residual
  Residual-Control   Outer-Iter.   Inner-Iter.     Column Row Layer    Maximum-Head-Change  Column Row Layer    Maximum-Flux-Residual          L2-NORM 
          0                 1           2             4    7     1      -0.5867623889E-01       4    7    1        -0.3073691713E+01      0.8407448418E+01
          0                 2           2             4    7     1       0.5707534032E-02       4    7    1         0.3073648771E+00      0.8407410972E+00
          0                 3           2             4    7     1      -0.3886625339E-03       4    7    1        -0.2151559132E-01      0.5885193307E-01
          0                 4           1             4    7     1       0.1546524322E-04       4    7    1         0.8799887171E-03      0.2407046646E-02

    ------------------------------------------------
       NWT REQUIRED            4 OUTER ITERATIONS 
       AND A TOTAL OF          7 INNER ITERATIONS.
    ------------------------------------------------

 NO OUTPUT CONTROL FOR STRESS PERIOD   45   TIME STEP   28
 
 SOLVING FOR HEAD 
                                                   Max.-Head-Change                         Max.-Flux-Residual
  Residual-Control   Outer-Iter.   Inner-Iter.     Column Row Layer    Maximum-Head-Change  Column Row Layer    Maximum-Flux-Residual          L2-NORM 
          0                 1           2             4    7     1      -0.5820564066E-01       4    7    1        -0.3048603464E+01      0.8376992890E+01
          0                 2           2             4    7     1       0.5661759292E-02       4    7    1         0.3048561638E+00      0.8376955943E+00
          0                 3           2             4    7     1      -0.3855454278E-03       4    7    1        -0.2133998025E-01      0.5863874844E-01
          0                 4           1             4    7     1       0.1534121050E-04       4    7    1         0.8728062155E-03      0.2398328633E-02

    ------------------------------------------------
       NWT REQUIRED            4 OUTER ITERATIONS 
       AND A TOTAL OF          7 INNER ITERATIONS.
    ------------------------------------------------

 NO OUTPUT CONTROL FOR STRESS PERIOD   45   TIME STEP   29
 
 SOLVING FOR HEAD 
                                                   Max.-Head-Change                         Max.-Flux-Residual
  Residual-Control   Outer-Iter.   Inner-Iter.     Column Row Layer    Maximum-Head-Change  Column Row Layer    Maximum-Flux-Residual          L2-NORM 
          0                 1           2             4    7     1      -0.5774675556E-01       4    7    1        -0.3024152105E+01      0.8347056403E+01
          0                 2           2             4    7     1       0.5617123850E-02       4    7    1         0.3024111347E+00      0.8347019944E+00
          0                 3           2             4    7     1      -0.3825059046E-03       4    7    1        -0.2116882713E-01      0.5842919570E-01
          0                 4           1             4    7     1       0.1522026561E-04       4    7    1         0.8658060603E-03      0.2389762095E-02

    ------------------------------------------------
       NWT REQUIRED            4 OUTER ITERATIONS 
       AND A TOTAL OF          7 INNER ITERATIONS.
    ------------------------------------------------

 NO OUTPUT CONTROL FOR STRESS PERIOD   45   TIME STEP   30



 STREAM LISTING     PERIOD     45   STEP       30

 LAYER ROW COL. STREAM  RCH.  FLOW INTO     FLOW TO   FLOW OUT OF   OVRLND.     DIRECT     STREAM       STREAM     STREAM     STREAM   STREAMBED  STREAMBED
                SEG.NO.  NO.  STRM. RCH.    AQUIFER    STRM. RCH.    RUNOFF     PRECIP       ET          HEAD       DEPTH      WIDTH   CONDCTNC.   GRADIENT

   1    1    1     1     1    1.9000E+01  2.1427E-01   1.8786E+01  0.000E+00  0.000E+00  0.000E+00  1.09413E+03  1.082E+00  1.166E+01  5.249E-02  1.361E+00
   1    2    2     1     2    1.8786E+01  3.3054E-01   1.8455E+01  0.000E+00  0.000E+00  0.000E+00  1.08914E+03  1.077E+00  1.158E+01  8.107E-02  1.359E+00
   1    3    3     1     3    1.8455E+01  2.8064E-01   1.8175E+01  0.000E+00  0.000E+00  0.000E+00  1.08349E+03  1.072E+00  1.149E+01  6.892E-02  1.357E+00
   1    3    4     1     4    1.8175E+01  2.5740E-01   1.7917E+01  0.000E+00  0.000E+00  0.000E+00  1.07848E+03  1.068E+00  1.140E+01  6.328E-02  1.356E+00
   1    4    5     2     1    1.5917E+01  3.0542E-01   1.5612E+01  0.000E+00  0.000E+00  0.000E+00  1.07285E+03  9.157E-01  1.200E+01  7.800E-02  1.305E+00
   1    5    6     2     2    1.5612E+01  2.3438E-01   1.5377E+01  0.000E+00  0.000E+00  0.000E+00  1.06742E+03  9.063E-01  1.200E+01  6.000E-02  1.302E+00
   1    6    6     2     3    1.5377E+01  2.3388E-01   1.5143E+01  0.000E+00  0.000E+00  0.000E+00  1.06269E+03  8.980E-01  1.200E+01  6.000E-02  1.299E+00
   1    7    6     2     4    1.5143E+01  2.3338E-01   1.4910E+01  0.000E+00  0.000E+00  0.000E+00  1.05797E+03  8.897E-01  1.200E+01  6.000E-02  1.297E+00
   1    8    6     2     5    1.4910E+01  2.3289E-01   1.4677E+01  0.000E+00  0.000E+00  0.000E+00  1.05324E+03  8.814E-01  1.200E+01  6.000E-02  1.294E+00
   1    3    5     3     1    2.0000E+00  2.8252E-01   1.7175E+00  0.000E+00  0.000E+00  0.000E+00  1.07555E+03  1.909E+00  9.636E+00  7.227E-02  1.955E+00
   1    3    6     3     2    1.7175E+00  2.4905E-01   1.4684E+00  0.000E+00  0.000E+00  0.000E+00  1.07264E+03  1.727E+00  8.909E+00  6.682E-02  1.864E+00
   1    3    7     3     3    1.4684E+00  1.9718E-01   1.2712E+00  0.000E+00  0.000E+00  0.000E+00  1.06987E+03  1.555E+00  8.218E+00  5.547E-02  1.777E+00
   1    4    8     3     4    1.2712E+00  2.2567E-01   1.0456E+00  0.000E+00  0.000E+00  0.000E+00  1.06682E+03  1.364E+00  7.455E+00  6.709E-02  1.682E+00
   1    5    8     3     5    1.0456E+00  1.5790E-01   8.8768E-01  0.000E+00  0.000E+00  0.000E+00  1.06362E+03  1.164E+00  6.655E+00  4.991E-02  1.582E+00
   1    6    8     3     6    8.8768E-01  5.5980E-02   8.3170E-01  0.000E+00  0.000E+00  0.000E+00  1.06158E+03  1.036E+00  6.145E+00  1.844E-02  1.518E+00
   1    5   10     4     1    1.0000E+01  9.0919E-02   9.9091E+00  0.000E+00  0.000E+00  0.000E+00  1.07836E+03  6.368E-01  1.000E+01  2.500E-02  1.212E+00
   1    5    9     4     2    9.9091E+00  1.8158E-01   9.7275E+00  0.000E+00  0.000E+00  0.000E+00  1.07154E+03  6.315E-01  1.000E+01  5.000E-02  1.211E+00
   1    6    8     4     3    9.7275E+00  1.2689E-01   9.6006E+00  0.000E+00  0.000E+00  0.000E+00  1.06381E+03  6.256E-01  1.000E+01  3.500E-02  1.209E+00
   1    6    8     5     1    1.0432E+01  2.2686E-01   1.0205E+01  0.000E+00  0.000E+00  0.000E+00  1.05868E+03  6.790E-01  1.542E+01  6.166E-02  1.226E+00
   1    7    7     5     2    1.0205E+01  2.7894E-01   9.9265E+00  0.000E+00  0.000E+00  0.000E+00  1.05417E+03  6.732E-01  1.519E+01  7.594E-02  1.224E+00
   1    8    7     5     3    9.9265E+00  1.9221E-01   9.7343E+00  0.000E+00  0.000E+00  0.000E+00  1.04992E+03  6.676E-01  1.497E+01  5.241E-02  1.223E+00
   1    8    6     5     4    9.7343E+00  1.3577E-01   9.5985E+00  0.000E+00  0.000E+00  0.000E+00  1.04691E+03  6.637E-01  1.482E+01  3.706E-02  1.221E+00
   1    9    6     6     1    2.4276E+01  2.5176E-01   2.4024E+01  0.000E+00  0.000E+00  0.000E+00  1.04392E+03  1.196E+00  1.200E+01  6.000E-02  1.399E+00
   1   10    7     6     2    2.4024E+01  2.5131E-01   2.3773E+01  0.000E+00  0.000E+00  0.000E+00  1.03937E+03  1.188E+00  1.200E+01  6.000E-02  1.396E+00
   1   11    7     6     3    2.3773E+01  2.5086E-01   2.3522E+01  0.000E+00  0.000E+00  0.000E+00  1.03482E+03  1.181E+00  1.200E+01  6.000E-02  1.394E+00
   1   12    7     6     4    2.3522E+01  2.5041E-01   2.3271E+01  0.000E+00  0.000E+00  0.000E+00  1.03026E+03  1.173E+00  1.200E+01  6.000E-02  1.391E+00
   1   13    7     6     5    2.3271E+01  1.1511E-02   2.3260E+01  0.000E+00  0.000E+00  0.000E+00  1.02708E+03  1.169E+00  1.200E+01  2.400E-02  1.599E-01
   1   14    9     7     1    1.5000E+02  1.3755E+00   1.4862E+02  0.000E+00  0.000E+00  0.000E+00  1.03987E+03  2.288E+00  5.529E+01  5.593E-01  8.198E-01
   1   13    8     7     2    1.4862E+02  1.9819E+00   1.4664E+02  0.000E+00  0.000E+00  0.000E+00  1.03478E+03  2.279E+00  5.525E+01  6.147E-01  1.075E+00
   1   13    7     7     3    1.4664E+02  1.7249E+00   1.4492E+02  0.000E+00  0.000E+00  0.000E+00  1.02969E+03  2.269E+00  5.521E+01  5.584E-01  1.030E+00
   1   13    6     8     1    1.6818E+02  1.1545E+00   1.6702E+02  0.000E+00  0.000E+00  0.000E+00  1.02481E+03  2.937E+00  4.258E+01  4.339E-01  8.869E-01
   1   13    5     8     2    1.6702E+02  3.8714E-01   1.6664E+02  0.000E+00  0.000E+00  0.000E+00  1.01856E+03  2.931E+00  4.251E+01  4.331E-01  2.979E-01
   1   13    4     8     3    1.6664E+02 -1.7354E+00   1.6837E+02  0.000E+00  0.000E+00  0.000E+00  1.01231E+03  2.936E+00  4.257E+01  4.338E+00 -1.334E-01
   1   13    3     8     4    1.6837E+02 -3.3011E+00   1.7167E+02  0.000E+00  0.000E+00  0.000E+00  1.00608E+03  2.952E+00  4.281E+01  4.362E+00 -2.522E-01
   1   13    2     8     5    1.7167E+02 -2.4874E+00   1.7416E+02  0.000E+00  0.000E+00  0.000E+00  9.99846E+02  2.971E+00  4.308E+01  4.390E+00 -1.889E-01
   1   13    1     8     6    1.7416E+02 -1.9582E+00   1.7612E+02  0.000E+00  0.000E+00  0.000E+00  9.94860E+02  2.985E+00  4.329E+01  2.647E+00 -2.466E-01





UNSATURATED ZONE PACKAGE VOLUMETRIC BUDGET FOR  TIME STEP    30 STRESS PERIOD   45
  ------------------------------------------------------------------------------



     CUMULATIVE VOLUMES      L**3       RATES FOR THIS TIME STEP      L**3/T
     ------------------                 ------------------------

           IN:                                      IN:
           ---                                      ---
        INFILTRATION =  1808806163.2427          INFILTRATION =          49.5675

          OUT:                                     OUT:
          ----                                     ----
              UZF ET =  1657025543.8785                UZF ET =          49.5675
        UZF RECHARGE =   113780005.8640          UZF RECHARGE =       0.0000E+00

            IN - OUT =    38000613.5002              IN - OUT =       0.0000E+00

          STORAGE:                                 STORAGE:
          --------                                 --------
      STORAGE CHANGE =    38000621.3507        STORAGE CHANGE =      -4.5113E-14

 PERCENT DISCREPANCY IS DIFFERENCE BETWEEN IN-OUT MINUS CHANGE IN STORAGE
 DIVIDED BY THE AVERAGE OF IN AND OUT TIMES 100

 PERCENT DISCREPANCY =           0.00     PERCENT DISCREPANCY =           0.00






1
  VOLUMETRIC BUDGET FOR AGRICULTURAL FIELDS AT  END OF TIME STEP   30, STRESS PERIOD  45
  ------------------------------------------------------------------------------

     CUMULATIVE VOLUMES      L**3       RATES FOR THIS TIME STEP      L**3/T
     ------------------                 ------------------------

           IN:                                      IN:
           ---                                      ---
               AG WELLS  =  1710661248.0000                 AG WELLS  =          48.7200
      DIVERSION SEGMENTS =           0.0000        DIVERSION SEGMENTS =           0.0000
           GW IRRIGATION =           0.0000             GW IRRIGATION =           0.0000
           SW IRRIGATION =           0.0000             SW IRRIGATION =           0.0000
        SYSTEM LOSSES GW =           0.0000          SYSTEM LOSSES GW =           0.0000
        SYSTEM LOSSES SW =           0.0000          SYSTEM LOSSES SW =           0.0000

                TOTAL IN =  1710661248.0000                  TOTAL IN =          48.7200

          OUT:                                     OUT:
          ----                                     ----
               AG WELLS  =           0.0000                 AG WELLS  =           0.0000
      DIVERSION SEGMENTS =           0.0000        DIVERSION SEGMENTS =           0.0000
           GW IRRIGATION =  1710661248.0000             GW IRRIGATION =          48.7200
           SW IRRIGATION =           0.0000             SW IRRIGATION =           0.0000
        SYSTEM LOSSES GW =           0.0000          SYSTEM LOSSES GW =           0.0000
        SYSTEM LOSSES SW =           0.0000          SYSTEM LOSSES SW =           0.0000

               TOTAL OUT =  1710661248.0000                 TOTAL OUT =          48.7200

                IN - OUT =           0.0000                  IN - OUT =           0.0000

     PERCENT DISCREPANCY =           0.00         PERCENT DISCREPANCY =           0.00



1
  VOLUMETRIC BUDGET FOR ENTIRE MODEL AT END OF TIME STEP   30, STRESS PERIOD  45
  ------------------------------------------------------------------------------

     CUMULATIVE VOLUMES      L**3       RATES FOR THIS TIME STEP      L**3/T
     ------------------                 ------------------------

           IN:                                      IN:
           ---                                      ---
             STORAGE     =  2152149504.0000               STORAGE     =          45.8541
       CONSTANT HEAD     =           0.0000         CONSTANT HEAD     =           0.0000
     HEAD DEP BOUNDS     =    33146330.0000       HEAD DEP BOUNDS     =           0.2885
      STREAM LEAKAGE     =  1418972672.0000        STREAM LEAKAGE     =          12.3640
        UZF RECHARGE     =   113780112.0000          UZF RECHARGE     =           0.0000
               GW ET     =           0.0000                 GW ET     =           0.0000
     SURFACE LEAKAGE     =           0.0000       SURFACE LEAKAGE     =           0.0000
           AG WELLS      =           0.0000             AG WELLS      =           0.0000

                TOTAL IN =  3718048768.0000                  TOTAL IN =          58.5066

          OUT:                                     OUT:
          ----                                     ----
             STORAGE     =   783444224.0000               STORAGE     =       1.5882E-02
       CONSTANT HEAD     =           0.0000         CONSTANT HEAD     =           0.0000
     HEAD DEP BOUNDS     =    33791476.0000       HEAD DEP BOUNDS     =           0.2888
      STREAM LEAKAGE     =  1172531840.0000        STREAM LEAKAGE     =           9.4821
        UZF RECHARGE     =           0.0000          UZF RECHARGE     =           0.0000
               GW ET     =    17607600.0000                 GW ET     =           0.0000
     SURFACE LEAKAGE     =           0.0000       SURFACE LEAKAGE     =           0.0000
           AG WELLS      =  1710661248.0000             AG WELLS      =          48.7200

               TOTAL OUT =  3718036480.0000                 TOTAL OUT =          58.5068

                IN - OUT =       12288.0000                  IN - OUT =      -1.6403E-04

     PERCENT DISCREPANCY =           0.00         PERCENT DISCREPANCY =          -0.00






         TIME SUMMARY AT END OF TIME STEP   30 IN STRESS PERIOD   45
                    SECONDS     MINUTES      HOURS       DAYS        YEARS
                    -----------------------------------------------------------
   TIME STEP LENGTH  87667.      1461.1      24.352      1.0147     2.77799E-03
 STRESS PERIOD TIME 2.63000E+06  43833.      730.56      30.440     8.33397E-02
         TOTAL TIME 1.15805E+08 1.93009E+06  32168.      1340.3      3.6696    
1
1
                            STRESS PERIOD NO.   46, LENGTH =   2630000.    
                            -----------------------------------------------

                              NUMBER OF TIME STEPS =    30

                               MULTIPLIER FOR DELT =     1.000

                            INITIAL TIME STEP SIZE =   87666.66    

 REUSING NON-PARAMETER GHB CELLS FROM LAST STRESS PERIOD

      2 GHB CELLS

 REUSING STREAM SEGMENT DATA FROM LAST STRESS PERIOD



            AREAL INFILTRATION RATE
 READING ON UNIT   19 WITH FORMAT: (FREE)              

            1           2           3           4           5           6           7           8           9          10
 ........................................................................................................................
   1   1.0000E-10  2.0000E-10   0.000       0.000       0.000       0.000       0.000       0.000       0.000       0.000    
   2   2.0000E-10  1.0000E-10  2.0000E-10   0.000       0.000      8.0000E-10  8.0000E-10  5.0000E-10   0.000       0.000    
   3    0.000      5.0000E-10  1.0000E-10  1.0000E-10  8.0000E-10  8.0000E-10  5.0000E-10  5.0000E-10   0.000       0.000    
   4   8.0000E-10  5.0000E-10  1.0000E-10  1.0000E-10  1.0000E-10  1.0000E-10  1.0000E-10  1.0000E-10  2.0000E-10   0.000    
   5   8.0000E-10  5.0000E-10  1.0000E-10  1.0000E-10  1.0000E-10  1.0000E-10  1.0000E-10  1.0000E-10  1.0000E-10  1.0000E-10
   6   8.0000E-10  5.0000E-10  5.0000E-10  2.0000E-10  2.0000E-10  1.0000E-10  1.0000E-10  1.0000E-10  1.0000E-10  5.0000E-10
   7   8.0000E-10  5.0000E-10  5.0000E-10  2.0000E-10  2.0000E-10  1.0000E-10  1.0000E-10  2.0000E-10  2.0000E-10   0.000    
   8    0.000      5.0000E-10  5.0000E-10  2.0000E-10  2.0000E-10  1.0000E-10  1.0000E-10  2.0000E-10  5.0000E-10   0.000    
   9    0.000      5.0000E-10  5.0000E-10  2.0000E-10  2.0000E-10  1.0000E-10  1.0000E-10  2.0000E-10  5.0000E-10   0.000    
  10    0.000      5.0000E-10  5.0000E-10  2.0000E-10  2.0000E-10  1.0000E-10  1.0000E-10  2.0000E-10  5.0000E-10  8.0000E-10
  11    0.000      1.0000E-10  1.0000E-10  1.0000E-10  1.0000E-10  1.0000E-10  1.0000E-10  2.0000E-10  5.0000E-10   0.000    
  12   1.0000E-10  1.0000E-10  1.0000E-10  1.0000E-10  1.0000E-10  1.0000E-10  1.0000E-10  1.0000E-10  2.0000E-10   0.000    
  13   1.0000E-10  1.0000E-10  2.0000E-10  2.0000E-10  2.0000E-10  2.0000E-10  2.0000E-10  1.0000E-10  1.0000E-10   0.000    
  14    0.000      2.0000E-10  5.0000E-10  5.0000E-10  5.0000E-10  5.0000E-10  5.0000E-10  2.0000E-10  1.0000E-10   0.000    
  15    0.000       0.000      8.0000E-10  8.0000E-10  8.0000E-10  8.0000E-10   0.000       0.000       0.000       0.000    

                  ET RATE =  7.500000E-08

 USING ET EXTINCTION DEPTH FROM PREVIOUS STRESS PERIOD. CURRENT PERIOD IS:      46

 USING EXTINCTION WATER CONTENT FROM PREVIOUS STRESS PERIOD. CURRENT PERIOD IS:      46

 USING AIR ENTRY PRESSURE FROM PREVIOUS STRESS PERIOD. CURRENT PERIOD IS:      46

 USING ROOT PRESSURE HEAD FROM PREVIOUS STRESS PERIOD. CURRENT PERIOD IS:      46

 USING ROOT ACTIVITY FROM PREVIOUS STRESS PERIOD. CURRENT PERIOD IS:      46

 PROCESSING AG STRESS PERIOD DATA

 READING AG STRESS PERIOD DATA

 READING IRRIGATION WELL

 END PROCESSING AG STRESS PERIOD DATA OPTIONS
 
 SOLVING FOR HEAD 
                                                   Max.-Head-Change                         Max.-Flux-Residual
  Residual-Control   Outer-Iter.   Inner-Iter.     Column Row Layer    Maximum-Head-Change  Column Row Layer    Maximum-Flux-Residual          L2-NORM 
          0                 1           2             5    8     1       0.7621655213E-01       5    8    1         0.4141879699E+01      0.1088504984E+02
          0                 2           2             5    8     1      -0.7413672131E-02       5    8    1        -0.4141796267E+00      0.1088480652E+01
          0                 3           2             5    8     1       0.5048447828E-03       5    8    1         0.2899266645E-01      0.7619390824E-01
          0                 4           1             5    8     1      -0.2008824117E-04       5    8    1        -0.1185801329E-02      0.3116333749E-02

    ------------------------------------------------
       NWT REQUIRED            4 OUTER ITERATIONS 
       AND A TOTAL OF          7 INNER ITERATIONS.
    ------------------------------------------------

 NO OUTPUT CONTROL FOR STRESS PERIOD   46   TIME STEP    1
 
 SOLVING FOR HEAD 
                                                   Max.-Head-Change                         Max.-Flux-Residual
  Residual-Control   Outer-Iter.   Inner-Iter.     Column Row Layer    Maximum-Head-Change  Column Row Layer    Maximum-Flux-Residual          L2-NORM 
          0                 1           2             5    8     1       0.7293992521E-01       5    8    1         0.3960565219E+01      0.1054989616E+02
          0                 2           2             5    8     1      -0.7094953813E-02       5    8    1        -0.3960487423E+00      0.1054967703E+01
          0                 3           2             5    8     1       0.4831411676E-03       5    8    1         0.2772349866E-01      0.7384797738E-01
          0                 4           1             5    8     1      -0.1922463438E-04       5    8    1        -0.1133892323E-02      0.3020385494E-02

    ------------------------------------------------
       NWT REQUIRED            4 OUTER ITERATIONS 
       AND A TOTAL OF          7 INNER ITERATIONS.
    ------------------------------------------------

 NO OUTPUT CONTROL FOR STRESS PERIOD   46   TIME STEP    2
 
 SOLVING FOR HEAD 
                                                   Max.-Head-Change                         Max.-Flux-Residual
  Residual-Control   Outer-Iter.   Inner-Iter.     Column Row Layer    Maximum-Head-Change  Column Row Layer    Maximum-Flux-Residual          L2-NORM 
          0                 1           2             5    8     1       0.6986074985E-01       5    8    1         0.3790303740E+01      0.1023252387E+02
          0                 2           2             5    8     1      -0.6795441537E-02       5    8    1        -0.3790231158E+00      0.1023232656E+01
          0                 3           2             5    8     1       0.4627454184E-03       5    8    1         0.2653169936E-01      0.7162650246E-01
          0                 4           1             5    8     1      -0.1841306873E-04       5    8    1        -0.1085147688E-02      0.2929527580E-02

    ------------------------------------------------
       NWT REQUIRED            4 OUTER ITERATIONS 
       AND A TOTAL OF          7 INNER ITERATIONS.
    ------------------------------------------------

 NO OUTPUT CONTROL FOR STRESS PERIOD   46   TIME STEP    3
 
 SOLVING FOR HEAD 
                                                   Max.-Head-Change                         Max.-Flux-Residual
  Residual-Control   Outer-Iter.   Inner-Iter.     Column Row Layer    Maximum-Head-Change  Column Row Layer    Maximum-Flux-Residual          L2-NORM 
          0                 1           2             5    8     1       0.6696471074E-01       5    8    1         0.3630287600E+01      0.9931642686E+01
          0                 2           2             5    8     1      -0.6513742865E-02       5    8    1        -0.3630219844E+00      0.9931465050E+00
          0                 3           2             5    8     1       0.4435627153E-03       5    8    1         0.2541161512E-01      0.6952045100E-01
          0                 4           1             5    8     1      -0.1764977136E-04       5    8    1        -0.1039336205E-02      0.2843389668E-02

    ------------------------------------------------
       NWT REQUIRED            4 OUTER ITERATIONS 
       AND A TOTAL OF          7 INNER ITERATIONS.
    ------------------------------------------------

 NO OUTPUT CONTROL FOR STRESS PERIOD   46   TIME STEP    4
 
 SOLVING FOR HEAD 
                                                   Max.-Head-Change                         Max.-Flux-Residual
  Residual-Control   Outer-Iter.   Inner-Iter.     Column Row Layer    Maximum-Head-Change  Column Row Layer    Maximum-Flux-Residual          L2-NORM 
          0                 1           2             5    7     1       0.6466137809E-01       5    8    1         0.3479805540E+01      0.9646089545E+01
          0                 2           2             5    7     1      -0.6289739308E-02       5    8    1        -0.3479742253E+00      0.9645929696E+00
          0                 3           2             5    7     1       0.4283084354E-03       5    8    1         0.2435826729E-01      0.6752168979E-01
          0                 4           1             5    7     1      -0.1704279367E-04       5    8    1        -0.9962542470E-03      0.2761639457E-02

    ------------------------------------------------
       NWT REQUIRED            4 OUTER ITERATIONS 
       AND A TOTAL OF          7 INNER ITERATIONS.
    ------------------------------------------------

 NO OUTPUT CONTROL FOR STRESS PERIOD   46   TIME STEP    5
 
 SOLVING FOR HEAD 
                                                   Max.-Head-Change                         Max.-Flux-Residual
  Residual-Control   Outer-Iter.   Inner-Iter.     Column Row Layer    Maximum-Head-Change  Column Row Layer    Maximum-Flux-Residual          L2-NORM 
          0                 1           2             5    7     1       0.6325778768E-01       5    7    1         0.3360434173E+01      0.9374784565E+01
          0                 2           2             5    7     1      -0.6153215999E-02       5    7    1        -0.3360406252E+00      0.9374640702E+00
          0                 3           2             5    7     1       0.4190116281E-03       5    7    1         0.2352288147E-01      0.6562264640E-01
          0                 4           1             5    7     1      -0.1667286497E-04       5    7    1        -0.9620870605E-03      0.2683969639E-02

    ------------------------------------------------
       NWT REQUIRED            4 OUTER ITERATIONS 
       AND A TOTAL OF          7 INNER ITERATIONS.
    ------------------------------------------------

 NO OUTPUT CONTROL FOR STRESS PERIOD   46   TIME STEP    6
 
 SOLVING FOR HEAD 
                                                   Max.-Head-Change                         Max.-Flux-Residual
  Residual-Control   Outer-Iter.   Inner-Iter.     Column Row Layer    Maximum-Head-Change  Column Row Layer    Maximum-Flux-Residual          L2-NORM 
          0                 1           2             5    7     1       0.6188053393E-01       5    7    1         0.3287489770E+01      0.9116748398E+01
          0                 2           2             5    7     1      -0.6019253544E-02       5    7    1        -0.3287466429E+00      0.9116618975E+00
          0                 3           2             5    7     1       0.4098892153E-03       5    7    1         0.2301229815E-01      0.6381647922E-01
          0                 4           1             5    7     1      -0.1630987617E-04       5    7    1        -0.9412041975E-03      0.2610096425E-02

    ------------------------------------------------
       NWT REQUIRED            4 OUTER ITERATIONS 
       AND A TOTAL OF          7 INNER ITERATIONS.
    ------------------------------------------------

 NO OUTPUT CONTROL FOR STRESS PERIOD   46   TIME STEP    7
 
 SOLVING FOR HEAD 
                                                   Max.-Head-Change                         Max.-Flux-Residual
  Residual-Control   Outer-Iter.   Inner-Iter.     Column Row Layer    Maximum-Head-Change  Column Row Layer    Maximum-Flux-Residual          L2-NORM 
          0                 1           2             5    7     1       0.6053055813E-01       5    7    1         0.3215918980E+01      0.8871079190E+01
          0                 2           2             5    7     1      -0.5887943630E-02       5    7    1        -0.3215899633E+00      0.8870962831E+00
          0                 3           2             5    7     1       0.4009474390E-03       5    7    1         0.2251132658E-01      0.6209687430E-01
          0                 4           1             5    7     1      -0.1595407489E-04       5    7    1        -0.9207144512E-03      0.2539764815E-02

    ------------------------------------------------
       NWT REQUIRED            4 OUTER ITERATIONS 
       AND A TOTAL OF          7 INNER ITERATIONS.
    ------------------------------------------------

 NO OUTPUT CONTROL FOR STRESS PERIOD   46   TIME STEP    8
 
 SOLVING FOR HEAD 
                                                   Max.-Head-Change                         Max.-Flux-Residual
  Residual-Control   Outer-Iter.   Inner-Iter.     Column Row Layer    Maximum-Head-Change  Column Row Layer    Maximum-Flux-Residual          L2-NORM 
          0                 1           2             4    7     1       0.5974954086E-01       5    7    1         0.3145754434E+01      0.8636931554E+01
          0                 2           2             4    7     1      -0.5811995308E-02       5    7    1        -0.3145738571E+00      0.8636826948E+00
          0                 3           2             4    7     1       0.3957754116E-03       5    7    1         0.2202019565E-01      0.6045791049E-01
          0                 4           1             4    7     1      -0.1574827314E-04       5    7    1        -0.9006271719E-03      0.2472732029E-02

    ------------------------------------------------
       NWT REQUIRED            4 OUTER ITERATIONS 
       AND A TOTAL OF          7 INNER ITERATIONS.
    ------------------------------------------------

 NO OUTPUT CONTROL FOR STRESS PERIOD   46   TIME STEP    9
 
 SOLVING FOR HEAD 
                                                   Max.-Head-Change                         Max.-Flux-Residual
  Residual-Control   Outer-Iter.   Inner-Iter.     Column Row Layer    Maximum-Head-Change  Column Row Layer    Maximum-Flux-Residual          L2-NORM 
          0                 1           2             4    7     1       0.5924088745E-01       4    7    1         0.3104371469E+01      0.8413562832E+01
          0                 2           2             4    7     1      -0.5762522360E-02       4    7    1        -0.3104371790E+00      0.8413468840E+00
          0                 3           2             4    7     1       0.3924064368E-03       4    7    1         0.2173061274E-01      0.5889439480E-01
          0                 4           1             4    7     1      -0.1561421879E-04       4    7    1        -0.8887832894E-03      0.2408787343E-02

    ------------------------------------------------
       NWT REQUIRED            4 OUTER ITERATIONS 
       AND A TOTAL OF          7 INNER ITERATIONS.
    ------------------------------------------------

 NO OUTPUT CONTROL FOR STRESS PERIOD   46   TIME STEP   10
 
 SOLVING FOR HEAD 
                                                   Max.-Head-Change                         Max.-Flux-Residual
  Residual-Control   Outer-Iter.   Inner-Iter.     Column Row Layer    Maximum-Head-Change  Column Row Layer    Maximum-Flux-Residual          L2-NORM 
          0                 1           2             4    7     1       0.5870481132E-01       4    7    1         0.3077948371E+01      0.8200260670E+01
          0                 2           2             4    7     1      -0.5710381355E-02       4    7    1        -0.3077951724E+00      0.8200176244E+00
          0                 3           2             4    7     1       0.3888557828E-03       4    7    1         0.2154566932E-01      0.5740133400E-01
          0                 4           1             4    7     1      -0.1547293512E-04       4    7    1        -0.8812191020E-03      0.2347717573E-02

    ------------------------------------------------
       NWT REQUIRED            4 OUTER ITERATIONS 
       AND A TOTAL OF          7 INNER ITERATIONS.
    ------------------------------------------------

 NO OUTPUT CONTROL FOR STRESS PERIOD   46   TIME STEP   11
 
 SOLVING FOR HEAD 
                                                   Max.-Head-Change                         Max.-Flux-Residual
  Residual-Control   Outer-Iter.   Inner-Iter.     Column Row Layer    Maximum-Head-Change  Column Row Layer    Maximum-Flux-Residual          L2-NORM 
          0                 1           2             4    7     1       0.5814384065E-01       4    7    1         0.3050089051E+01      0.7996374245E+01
          0                 2           2             4    7     1      -0.5655818263E-02       4    7    1        -0.3050095088E+00      0.7996298458E+00
          0                 3           2             4    7     1       0.3851401991E-03       4    7    1         0.2135067025E-01      0.5597418110E-01
          0                 4           1             4    7     1      -0.1532508895E-04       4    7    1        -0.8732436513E-03      0.2289353615E-02

    ------------------------------------------------
       NWT REQUIRED            4 OUTER ITERATIONS 
       AND A TOTAL OF          7 INNER ITERATIONS.
    ------------------------------------------------

 NO OUTPUT CONTROL FOR STRESS PERIOD   46   TIME STEP   12
 
 SOLVING FOR HEAD 
                                                   Max.-Head-Change                         Max.-Flux-Residual
  Residual-Control   Outer-Iter.   Inner-Iter.     Column Row Layer    Maximum-Head-Change  Column Row Layer    Maximum-Flux-Residual          L2-NORM 
          0                 1           2             4    7     1       0.5756073720E-01       4    7    1         0.3020946163E+01      0.7801303131E+01
          0                 2           2             4    7     1      -0.5599101781E-02       4    7    1        -0.3020954567E+00      0.7801235176E+00
          0                 3           2             4    7     1       0.3812779820E-03       4    7    1         0.2114668428E-01      0.5460873018E-01
          0                 4           1             4    7     1      -0.1517140788E-04       4    7    1        -0.8649006299E-03      0.2233498887E-02

    ------------------------------------------------
       NWT REQUIRED            4 OUTER ITERATIONS 
       AND A TOTAL OF          7 INNER ITERATIONS.
    ------------------------------------------------

 NO OUTPUT CONTROL FOR STRESS PERIOD   46   TIME STEP   13
 
 SOLVING FOR HEAD 
                                                   Max.-Head-Change                         Max.-Flux-Residual
  Residual-Control   Outer-Iter.   Inner-Iter.     Column Row Layer    Maximum-Head-Change  Column Row Layer    Maximum-Flux-Residual          L2-NORM 
          0                 1           2             4    7     1       0.5695782831E-01       4    7    1         0.2990648514E+01      0.7614499671E+01
          0                 2           2             4    7     1      -0.5540458335E-02       4    7    1        -0.2990658998E+00      0.7614438674E+00
          0                 3           2             4    7     1       0.3772845499E-03       4    7    1         0.2093461324E-01      0.5330114806E-01
          0                 4           1             4    7     1      -0.1501250577E-04       4    7    1        -0.8562269177E-03      0.2180019968E-02

    ------------------------------------------------
       NWT REQUIRED            4 OUTER ITERATIONS 
       AND A TOTAL OF          7 INNER ITERATIONS.
    ------------------------------------------------

 NO OUTPUT CONTROL FOR STRESS PERIOD   46   TIME STEP   14
 
 SOLVING FOR HEAD 
                                                   Max.-Head-Change                         Max.-Flux-Residual
  Residual-Control   Outer-Iter.   Inner-Iter.     Column Row Layer    Maximum-Head-Change  Column Row Layer    Maximum-Flux-Residual          L2-NORM 
          0                 1           2             4    7     1       0.5633755422E-01       4    7    1         0.2959331160E+01      0.7435463828E+01
          0                 2           2             4    7     1      -0.5480125337E-02       4    7    1        -0.2959343463E+00      0.7435409237E+00
          0                 3           2             4    7     1       0.3731760694E-03       4    7    1         0.2071540268E-01      0.5204793405E-01
          0                 4           1             4    7     1      -0.1484902550E-04       4    7    1        -0.8472611962E-03      0.2128764134E-02

    ------------------------------------------------
       NWT REQUIRED            4 OUTER ITERATIONS 
       AND A TOTAL OF          7 INNER ITERATIONS.
    ------------------------------------------------

 NO OUTPUT CONTROL FOR STRESS PERIOD   46   TIME STEP   15
 
 SOLVING FOR HEAD 
                                                   Max.-Head-Change                         Max.-Flux-Residual
  Residual-Control   Outer-Iter.   Inner-Iter.     Column Row Layer    Maximum-Head-Change  Column Row Layer    Maximum-Flux-Residual          L2-NORM 
          0                 1           2             5    8     1       0.8595430457E-01       5    8    1         0.4681664423E+01      0.8331856942E+01
          0                 2           2             5    8     1      -0.8356833672E-02       5    8    1        -0.4679315499E+00      0.8330459128E+00
          0                 3           2             5    8     1       0.5686593099E-03       5    8    1         0.3273129942E-01      0.5829987519E-01
          0                 4           1             5    8     1      -0.2260043674E-04       5    8    1        -0.1337091006E-02      0.2383556519E-02

    ------------------------------------------------
       NWT REQUIRED            4 OUTER ITERATIONS 
       AND A TOTAL OF          7 INNER ITERATIONS.
    ------------------------------------------------

 NO OUTPUT CONTROL FOR STRESS PERIOD   46   TIME STEP   16
 
 SOLVING FOR HEAD 
                                                   Max.-Head-Change                         Max.-Flux-Residual
  Residual-Control   Outer-Iter.   Inner-Iter.     Column Row Layer    Maximum-Head-Change  Column Row Layer    Maximum-Flux-Residual          L2-NORM 
          0                 1           2             5    8     1       0.8235569500E-01       5    8    1         0.4481765513E+01      0.8114147516E+01
          0                 2           2             5    8     1      -0.8006953286E-02       5    8    1        -0.4479508807E+00      0.8112831392E+00
          0                 3           2             5    8     1       0.5448510100E-03       5    8    1         0.3133365939E-01      0.5677725613E-01
          0                 4           1             5    8     1      -0.2165421462E-04       5    8    1        -0.1279995307E-02      0.2321335710E-02

    ------------------------------------------------
       NWT REQUIRED            4 OUTER ITERATIONS 
       AND A TOTAL OF          7 INNER ITERATIONS.
    ------------------------------------------------

 NO OUTPUT CONTROL FOR STRESS PERIOD   46   TIME STEP   17
 
 SOLVING FOR HEAD 
                                                   Max.-Head-Change                         Max.-Flux-Residual
  Residual-Control   Outer-Iter.   Inner-Iter.     Column Row Layer    Maximum-Head-Change  Column Row Layer    Maximum-Flux-Residual          L2-NORM 
          0                 1           2             5    8     1       0.7871162460E-01       5    8    1         0.4279579893E+01      0.7900112006E+01
          0                 2           2             5    8     1      -0.7652653075E-02       5    8    1        -0.4277416696E+00      0.7898878348E+00
          0                 3           2             5    8     1       0.5207419522E-03       5    8    1         0.2992003406E-01      0.5528037078E-01
          0                 4           1             5    8     1      -0.2069603914E-04       5    8    1        -0.1222246636E-02      0.2260167148E-02

    ------------------------------------------------
       NWT REQUIRED            4 OUTER ITERATIONS 
       AND A TOTAL OF          7 INNER ITERATIONS.
    ------------------------------------------------

 NO OUTPUT CONTROL FOR STRESS PERIOD   46   TIME STEP   18
 
 SOLVING FOR HEAD 
                                                   Max.-Head-Change                         Max.-Flux-Residual
  Residual-Control   Outer-Iter.   Inner-Iter.     Column Row Layer    Maximum-Head-Change  Column Row Layer    Maximum-Flux-Residual          L2-NORM 
          0                 1           2             5    8     1       0.7529608760E-01       5    8    1         0.4090213716E+01      0.7697627584E+01
          0                 2           2             5    8     1       0.7705681677E-02       5    8    1         0.4315407301E+00      0.7819559782E+00
          0                 3           2             5    8     1       0.1903241674E-02       5    8    1         0.1045467069E+00      0.1141274995E+00
          0                 4           1             5    8     1       0.4700866450E-03       5    8    1         0.2594906272E-01      0.2601272028E-01
          0                 5           1             5    8     1       0.1161079523E-03       5    8    1         0.6403776042E-02      0.6404225958E-02
          0                 6           1             5    8     1       0.2867781389E-04       5    8    1         0.1581644565E-02      0.1581766679E-02

    ------------------------------------------------
       NWT REQUIRED            6 OUTER ITERATIONS 
       AND A TOTAL OF          9 INNER ITERATIONS.
    ------------------------------------------------

 NO OUTPUT CONTROL FOR STRESS PERIOD   46   TIME STEP   19
 
 SOLVING FOR HEAD 
                                                   Max.-Head-Change                         Max.-Flux-Residual
  Residual-Control   Outer-Iter.   Inner-Iter.     Column Row Layer    Maximum-Head-Change  Column Row Layer    Maximum-Flux-Residual          L2-NORM 
          0                 1           2             5    8     1       0.7101685527E-01       5    8    1         0.3852528597E+01      0.7483067939E+01
          0                 2           2             5    8     1       0.1754041004E-01       5    8    1         0.9743134498E+00      0.1166543147E+01
          0                 3           2             5    8     1      -0.1563741549E-02       5    8    1        -0.8917985341E-01      0.9998365093E-01
          0                 4           1             5    8     1       0.1064083414E-03       5    8    1         0.6226273696E-02      0.6503245280E-02
          0                 5           1             5    8     1      -0.4229025662E-05       5    8    1        -0.2538814870E-03      0.2552424239E-03

    ------------------------------------------------
       NWT REQUIRED            5 OUTER ITERATIONS 
       AND A TOTAL OF          8 INNER ITERATIONS.
    ------------------------------------------------

 NO OUTPUT CONTROL FOR STRESS PERIOD   46   TIME STEP   20
 
 SOLVING FOR HEAD 
                                                   Max.-Head-Change                         Max.-Flux-Residual
  Residual-Control   Outer-Iter.   Inner-Iter.     Column Row Layer    Maximum-Head-Change  Column Row Layer    Maximum-Flux-Residual          L2-NORM 
          0                 1           2             5    8     1       0.6666567194E-01       5    8    1         0.3610860326E+01      0.7275084325E+01
          0                 2           2             5    8     1      -0.6481469201E-02       5    8    1        -0.3609007618E+00      0.7274124927E+00
          0                 3           2             5    8     1       0.4410464118E-03       5    8    1         0.2524453908E-01      0.5090973799E-01
          0                 4           1             5    8     1      -0.1752866852E-04       5    8    1        -0.1031245717E-02      0.2081586155E-02

    ------------------------------------------------
       NWT REQUIRED            4 OUTER ITERATIONS 
       AND A TOTAL OF          7 INNER ITERATIONS.
    ------------------------------------------------

 NO OUTPUT CONTROL FOR STRESS PERIOD   46   TIME STEP   21
 
 SOLVING FOR HEAD 
                                                   Max.-Head-Change                         Max.-Flux-Residual
  Residual-Control   Outer-Iter.   Inner-Iter.     Column Row Layer    Maximum-Head-Change  Column Row Layer    Maximum-Flux-Residual          L2-NORM 
          0                 1           2             5    8     1       0.6401227409E-01       5    8    1         0.3464259644E+01      0.7106423493E+01
          0                 2           2             5    8     1      -0.6223491868E-02       5    8    1        -0.3462477311E+00      0.7105519538E+00
          0                 3           2             5    8     1       0.4234918021E-03       5    8    1         0.2421956705E-01      0.4973001902E-01
          0                 4           1             5    8     1      -0.1683098928E-04       5    8    1        -0.9893743254E-03      0.2033372813E-02

    ------------------------------------------------
       NWT REQUIRED            4 OUTER ITERATIONS 
       AND A TOTAL OF          7 INNER ITERATIONS.
    ------------------------------------------------

 NO OUTPUT CONTROL FOR STRESS PERIOD   46   TIME STEP   22
 
 SOLVING FOR HEAD 
                                                   Max.-Head-Change                         Max.-Flux-Residual
  Residual-Control   Outer-Iter.   Inner-Iter.     Column Row Layer    Maximum-Head-Change  Column Row Layer    Maximum-Flux-Residual          L2-NORM 
          0                 1           2             5    8     1       0.6151475703E-01       5    8    1         0.3326374214E+01      0.6945464202E+01
          0                 2           2             5    8     1      -0.5980670525E-02       5    8    1        -0.3324658430E+00      0.6944611681E+00
          0                 3           2             5    8     1       0.4069685095E-03       5    8    1         0.2325553125E-01      0.4860414438E-01
          0                 4           1             5    8     1      -0.1617429799E-04       5    8    1        -0.9499923060E-03      0.1987356385E-02

    ------------------------------------------------
       NWT REQUIRED            4 OUTER ITERATIONS 
       AND A TOTAL OF          7 INNER ITERATIONS.
    ------------------------------------------------

 NO OUTPUT CONTROL FOR STRESS PERIOD   46   TIME STEP   23
 
 SOLVING FOR HEAD 
                                                   Max.-Head-Change                         Max.-Flux-Residual
  Residual-Control   Outer-Iter.   Inner-Iter.     Column Row Layer    Maximum-Head-Change  Column Row Layer    Maximum-Flux-Residual          L2-NORM 
          0                 1           2             5    8     1       0.5916229645E-01       5    8    1         0.3196594190E+01      0.6791649659E+01
          0                 2           2             5    8     1      -0.5751952699E-02       5    8    1        -0.3194941362E+00      0.6790844760E+00
          0                 3           2             5    8     1       0.3914049168E-03       5    8    1         0.2234816743E-01      0.4752822437E-01
          0                 4           1             5    8     1      -0.1555574859E-04       5    8    1        -0.9129254449E-03      0.1943383947E-02

    ------------------------------------------------
       NWT REQUIRED            4 OUTER ITERATIONS 
       AND A TOTAL OF          7 INNER ITERATIONS.
    ------------------------------------------------

 NO OUTPUT CONTROL FOR STRESS PERIOD   46   TIME STEP   24
 
 SOLVING FOR HEAD 
                                                   Max.-Head-Change                         Max.-Flux-Residual
  Residual-Control   Outer-Iter.   Inner-Iter.     Column Row Layer    Maximum-Head-Change  Column Row Layer    Maximum-Flux-Residual          L2-NORM 
          0                 1           2             5    8     1       0.5694492187E-01       5    8    1         0.3074358362E+01      0.6644464556E+01
          0                 2           2             5    8     1      -0.5536368942E-02       5    8    1        -0.3072765117E+00      0.6643703804E+00
          0                 3           2             5    8     1       0.3767350559E-03       5    8    1         0.2149355147E-01      0.4649864813E-01
          0                 4           1             5    8     1      -0.1497271894E-04       5    8    1        -0.8780134142E-03      0.1901301366E-02

    ------------------------------------------------
       NWT REQUIRED            4 OUTER ITERATIONS 
       AND A TOTAL OF          7 INNER ITERATIONS.
    ------------------------------------------------

 NO OUTPUT CONTROL FOR STRESS PERIOD   46   TIME STEP   25
 
 SOLVING FOR HEAD 
                                                   Max.-Head-Change                         Max.-Flux-Residual
  Residual-Control   Outer-Iter.   Inner-Iter.     Column Row Layer    Maximum-Head-Change  Column Row Layer    Maximum-Flux-Residual          L2-NORM 
          0                 1           2             4    8     1       0.8864760356E-01       4    8    1         0.4740339539E+01      0.7695764693E+01
          0                 2           2             4    8     1      -0.8618574565E-02       4    8    1        -0.4737917602E+00      0.7693621079E+00
          0                 3           2             4    8     1       0.5864588697E-03       4    8    1         0.3314076435E-01      0.5383429654E-01
          0                 4           1             4    8     1      -0.2330710434E-04       4    8    1        -0.1353787428E-02      0.2200393662E-02

    ------------------------------------------------
       NWT REQUIRED            4 OUTER ITERATIONS 
       AND A TOTAL OF          7 INNER ITERATIONS.
    ------------------------------------------------

 NO OUTPUT CONTROL FOR STRESS PERIOD   46   TIME STEP   26
 
 SOLVING FOR HEAD 
                                                   Max.-Head-Change                         Max.-Flux-Residual
  Residual-Control   Outer-Iter.   Inner-Iter.     Column Row Layer    Maximum-Head-Change  Column Row Layer    Maximum-Flux-Residual          L2-NORM 
          0                 1           2             5    7     1       0.8781279901E-01       5    7    1         0.4739794426E+01      0.8589394369E+01
          0                 2           2             4    8     1       0.1478416486E-01       4    8    1         0.8089519104E+00      0.1085475100E+01
          0                 3           2             4    8     1       0.3738914409E-02       4    8    1         0.2023325217E+00      0.2086311303E+00
          0                 4           2             4    8     1       0.9455735214E-03       4    8    1         0.5131005695E-01      0.5134806784E-01
          0                 5           2             4    8     1       0.2391360472E-03       4    8    1         0.1297079327E-01      0.1297117526E-01
          0                 6           1             4    8     1       0.6047764150E-04       4    8    1         0.3280385730E-02      0.3280457770E-02

    ------------------------------------------------
       NWT REQUIRED            6 OUTER ITERATIONS 
       AND A TOTAL OF         11 INNER ITERATIONS.
    ------------------------------------------------

 NO OUTPUT CONTROL FOR STRESS PERIOD   46   TIME STEP   27
 
 SOLVING FOR HEAD 
                                                   Max.-Head-Change                         Max.-Flux-Residual
  Residual-Control   Outer-Iter.   Inner-Iter.     Column Row Layer    Maximum-Head-Change  Column Row Layer    Maximum-Flux-Residual          L2-NORM 
          0                 1           2             5    7     1       0.8496119327E-01       5    7    1         0.4581195265E+01      0.8376197588E+01
          0                 2           2             5    7     1      -0.8254838340E-02       5    7    1        -0.4578912164E+00      0.7767089762E+00
          0                 3           2             5    7     1       0.5617148341E-03       5    7    1         0.3202872773E-01      0.5870635783E-01
          0                 4           1             4    8     1       0.3721419603E-04       4    8    1         0.2154391979E-02      0.2971552585E-02

    ------------------------------------------------
       NWT REQUIRED            4 OUTER ITERATIONS 
       AND A TOTAL OF          7 INNER ITERATIONS.
    ------------------------------------------------

 NO OUTPUT CONTROL FOR STRESS PERIOD   46   TIME STEP   28
 
 SOLVING FOR HEAD 
                                                   Max.-Head-Change                         Max.-Flux-Residual
  Residual-Control   Outer-Iter.   Inner-Iter.     Column Row Layer    Maximum-Head-Change  Column Row Layer    Maximum-Flux-Residual          L2-NORM 
          0                 1           2             5    7     1       0.8264326292E-01       5    7    1         0.4415698612E+01      0.8972582531E+01
          0                 2           2             5    7     1      -0.8034839898E-02       5    7    1        -0.4413451864E+00      0.8968939831E+00
          0                 3           2             5    7     1       0.5467390981E-03       5    7    1         0.3087116386E-01      0.6274665070E-01
          0                 4           1             5    7     1      -0.2172866614E-04       5    7    1        -0.1261073904E-02      0.2563898283E-02

    ------------------------------------------------
       NWT REQUIRED            4 OUTER ITERATIONS 
       AND A TOTAL OF          7 INNER ITERATIONS.
    ------------------------------------------------

 NO OUTPUT CONTROL FOR STRESS PERIOD   46   TIME STEP   29
 
 SOLVING FOR HEAD 
                                                   Max.-Head-Change                         Max.-Flux-Residual
  Residual-Control   Outer-Iter.   Inner-Iter.     Column Row Layer    Maximum-Head-Change  Column Row Layer    Maximum-Flux-Residual          L2-NORM 
          0                 1           2             5    7     1       0.8042500680E-01       5    7    1         0.4294956045E+01      0.8774483324E+01
          0                 2           2             5    8     1       0.1145500446E-01       5    8    1         0.6392998062E+00      0.9592029590E+00
          0                 3           2             5    8     1       0.2823165956E-02       5    8    1         0.1555729053E+00      0.1643395681E+00
          0                 4           1             5    8     1       0.6959584394E-03       5    8    1         0.3846790413E-01      0.3868762540E-01
          0                 5           1             5    8     1       0.1716099356E-03       5    8    1         0.9478639293E-02      0.9509778028E-02
          0                 6           1             5    8     1       0.4232760032E-04       5    8    1         0.2337367926E-02      0.2342463699E-02

    ------------------------------------------------
       NWT REQUIRED            6 OUTER ITERATIONS 
       AND A TOTAL OF          9 INNER ITERATIONS.
    ------------------------------------------------

 NO OUTPUT CONTROL FOR STRESS PERIOD   46   TIME STEP   30



 STREAM LISTING     PERIOD     46   STEP       30

 LAYER ROW COL. STREAM  RCH.  FLOW INTO     FLOW TO   FLOW OUT OF   OVRLND.     DIRECT     STREAM       STREAM     STREAM     STREAM   STREAMBED  STREAMBED
                SEG.NO.  NO.  STRM. RCH.    AQUIFER    STRM. RCH.    RUNOFF     PRECIP       ET          HEAD       DEPTH      WIDTH   CONDCTNC.   GRADIENT

   1    1    1     1     1    1.9000E+01  2.1427E-01   1.8786E+01  0.000E+00  0.000E+00  0.000E+00  1.09413E+03  1.082E+00  1.166E+01  5.249E-02  1.361E+00
   1    2    2     1     2    1.8786E+01  3.3054E-01   1.8455E+01  0.000E+00  0.000E+00  0.000E+00  1.08914E+03  1.077E+00  1.158E+01  8.107E-02  1.359E+00
   1    3    3     1     3    1.8455E+01  2.8064E-01   1.8175E+01  0.000E+00  0.000E+00  0.000E+00  1.08349E+03  1.072E+00  1.149E+01  6.892E-02  1.357E+00
   1    3    4     1     4    1.8175E+01  2.5740E-01   1.7917E+01  0.000E+00  0.000E+00  0.000E+00  1.07848E+03  1.068E+00  1.140E+01  6.328E-02  1.356E+00
   1    4    5     2     1    1.5917E+01  3.0542E-01   1.5612E+01  0.000E+00  0.000E+00  0.000E+00  1.07285E+03  9.157E-01  1.200E+01  7.800E-02  1.305E+00
   1    5    6     2     2    1.5612E+01  2.3438E-01   1.5377E+01  0.000E+00  0.000E+00  0.000E+00  1.06742E+03  9.063E-01  1.200E+01  6.000E-02  1.302E+00
   1    6    6     2     3    1.5377E+01  2.3388E-01   1.5143E+01  0.000E+00  0.000E+00  0.000E+00  1.06269E+03  8.980E-01  1.200E+01  6.000E-02  1.299E+00
   1    7    6     2     4    1.5143E+01  2.3338E-01   1.4910E+01  0.000E+00  0.000E+00  0.000E+00  1.05797E+03  8.897E-01  1.200E+01  6.000E-02  1.297E+00
   1    8    6     2     5    1.4910E+01  2.3289E-01   1.4677E+01  0.000E+00  0.000E+00  0.000E+00  1.05324E+03  8.814E-01  1.200E+01  6.000E-02  1.294E+00
   1    3    5     3     1    2.0000E+00  2.8252E-01   1.7175E+00  0.000E+00  0.000E+00  0.000E+00  1.07555E+03  1.909E+00  9.636E+00  7.227E-02  1.955E+00
   1    3    6     3     2    1.7175E+00  2.4905E-01   1.4684E+00  0.000E+00  0.000E+00  0.000E+00  1.07264E+03  1.727E+00  8.909E+00  6.682E-02  1.864E+00
   1    3    7     3     3    1.4684E+00  1.9718E-01   1.2712E+00  0.000E+00  0.000E+00  0.000E+00  1.06987E+03  1.555E+00  8.218E+00  5.547E-02  1.777E+00
   1    4    8     3     4    1.2712E+00  2.2567E-01   1.0456E+00  0.000E+00  0.000E+00  0.000E+00  1.06682E+03  1.364E+00  7.455E+00  6.709E-02  1.682E+00
   1    5    8     3     5    1.0456E+00  1.5790E-01   8.8768E-01  0.000E+00  0.000E+00  0.000E+00  1.06362E+03  1.164E+00  6.655E+00  4.991E-02  1.582E+00
   1    6    8     3     6    8.8768E-01  5.5980E-02   8.3170E-01  0.000E+00  0.000E+00  0.000E+00  1.06158E+03  1.036E+00  6.145E+00  1.844E-02  1.518E+00
   1    5   10     4     1    1.0000E+01  9.0919E-02   9.9091E+00  0.000E+00  0.000E+00  0.000E+00  1.07836E+03  6.368E-01  1.000E+01  2.500E-02  1.212E+00
   1    5    9     4     2    9.9091E+00  1.8158E-01   9.7275E+00  0.000E+00  0.000E+00  0.000E+00  1.07154E+03  6.315E-01  1.000E+01  5.000E-02  1.211E+00
   1    6    8     4     3    9.7275E+00  1.2689E-01   9.6006E+00  0.000E+00  0.000E+00  0.000E+00  1.06381E+03  6.256E-01  1.000E+01  3.500E-02  1.209E+00
   1    6    8     5     1    1.0432E+01  2.2686E-01   1.0205E+01  0.000E+00  0.000E+00  0.000E+00  1.05868E+03  6.790E-01  1.542E+01  6.166E-02  1.226E+00
   1    7    7     5     2    1.0205E+01  2.7894E-01   9.9265E+00  0.000E+00  0.000E+00  0.000E+00  1.05417E+03  6.732E-01  1.519E+01  7.594E-02  1.224E+00
   1    8    7     5     3    9.9265E+00  1.9221E-01   9.7343E+00  0.000E+00  0.000E+00  0.000E+00  1.04992E+03  6.676E-01  1.497E+01  5.241E-02  1.223E+00
   1    8    6     5     4    9.7343E+00  1.3577E-01   9.5985E+00  0.000E+00  0.000E+00  0.000E+00  1.04691E+03  6.637E-01  1.482E+01  3.706E-02  1.221E+00
   1    9    6     6     1    2.4276E+01  2.5176E-01   2.4024E+01  0.000E+00  0.000E+00  0.000E+00  1.04392E+03  1.196E+00  1.200E+01  6.000E-02  1.399E+00
   1   10    7     6     2    2.4024E+01  2.5131E-01   2.3773E+01  0.000E+00  0.000E+00  0.000E+00  1.03937E+03  1.188E+00  1.200E+01  6.000E-02  1.396E+00
   1   11    7     6     3    2.3773E+01  2.5086E-01   2.3522E+01  0.000E+00  0.000E+00  0.000E+00  1.03482E+03  1.181E+00  1.200E+01  6.000E-02  1.394E+00
   1   12    7     6     4    2.3522E+01  2.5041E-01   2.3271E+01  0.000E+00  0.000E+00  0.000E+00  1.03026E+03  1.173E+00  1.200E+01  6.000E-02  1.391E+00
   1   13    7     6     5    2.3271E+01  1.1704E-02   2.3260E+01  0.000E+00  0.000E+00  0.000E+00  1.02708E+03  1.169E+00  1.200E+01  2.400E-02  1.626E-01
   1   14    9     7     1    1.5000E+02  1.3775E+00   1.4862E+02  0.000E+00  0.000E+00  0.000E+00  1.03987E+03  2.288E+00  5.529E+01  5.593E-01  8.209E-01
   1   13    8     7     2    1.4862E+02  1.9858E+00   1.4664E+02  0.000E+00  0.000E+00  0.000E+00  1.03478E+03  2.279E+00  5.525E+01  6.147E-01  1.077E+00
   1   13    7     7     3    1.4664E+02  1.7294E+00   1.4491E+02  0.000E+00  0.000E+00  0.000E+00  1.02969E+03  2.269E+00  5.521E+01  5.584E-01  1.032E+00
   1   13    6     8     1    1.6817E+02  1.1591E+00   1.6701E+02  0.000E+00  0.000E+00  0.000E+00  1.02481E+03  2.936E+00  4.258E+01  4.339E-01  8.905E-01
   1   13    5     8     2    1.6701E+02  3.9268E-01   1.6662E+02  0.000E+00  0.000E+00  0.000E+00  1.01856E+03  2.931E+00  4.250E+01  4.331E-01  3.022E-01
   1   13    4     8     3    1.6662E+02 -1.7124E+00   1.6833E+02  0.000E+00  0.000E+00  0.000E+00  1.01231E+03  2.936E+00  4.257E+01  4.338E+00 -1.316E-01
   1   13    3     8     4    1.6833E+02 -3.2937E+00   1.7162E+02  0.000E+00  0.000E+00  0.000E+00  1.00608E+03  2.952E+00  4.280E+01  4.362E+00 -2.517E-01
   1   13    2     8     5    1.7162E+02 -2.4857E+00   1.7411E+02  0.000E+00  0.000E+00  0.000E+00  9.99846E+02  2.971E+00  4.308E+01  4.390E+00 -1.888E-01
   1   13    1     8     6    1.7411E+02 -1.9576E+00   1.7606E+02  0.000E+00  0.000E+00  0.000E+00  9.94860E+02  2.985E+00  4.328E+01  2.646E+00 -2.466E-01





UNSATURATED ZONE PACKAGE VOLUMETRIC BUDGET FOR  TIME STEP    30 STRESS PERIOD   46
  ------------------------------------------------------------------------------



     CUMULATIVE VOLUMES      L**3       RATES FOR THIS TIME STEP      L**3/T
     ------------------                 ------------------------

           IN:                                      IN:
           ---                                      ---
        INFILTRATION =  1840543688.1191          INFILTRATION =          12.0675

          OUT:                                     OUT:
          ----                                     ----
              UZF ET =  1688763068.7549                UZF ET =          12.0675
        UZF RECHARGE =   119809985.1609          UZF RECHARGE =          11.1592

            IN - OUT =    31970634.2033              IN - OUT =         -11.1592

          STORAGE:                                 STORAGE:
          --------                                 --------
      STORAGE CHANGE =    31970642.0358        STORAGE CHANGE =         -11.1592

 PERCENT DISCREPANCY IS DIFFERENCE BETWEEN IN-OUT MINUS CHANGE IN STORAGE
 DIVIDED BY THE AVERAGE OF IN AND OUT TIMES 100

 PERCENT DISCREPANCY =           0.00     PERCENT DISCREPANCY =           0.00






1
  VOLUMETRIC BUDGET FOR AGRICULTURAL FIELDS AT  END OF TIME STEP   30, STRESS PERIOD  46
  ------------------------------------------------------------------------------

     CUMULATIVE VOLUMES      L**3       RATES FOR THIS TIME STEP      L**3/T
     ------------------                 ------------------------

           IN:                                      IN:
           ---                                      ---
               AG WELLS  =  1740171648.0000                 AG WELLS  =          11.2200
      DIVERSION SEGMENTS =           0.0000        DIVERSION SEGMENTS =           0.0000
           GW IRRIGATION =           0.0000             GW IRRIGATION =           0.0000
           SW IRRIGATION =           0.0000             SW IRRIGATION =           0.0000
        SYSTEM LOSSES GW =           0.0000          SYSTEM LOSSES GW =           0.0000
        SYSTEM LOSSES SW =           0.0000          SYSTEM LOSSES SW =           0.0000

                TOTAL IN =  1740171648.0000                  TOTAL IN =          11.2200

          OUT:                                     OUT:
          ----                                     ----
               AG WELLS  =           0.0000                 AG WELLS  =           0.0000
      DIVERSION SEGMENTS =           0.0000        DIVERSION SEGMENTS =           0.0000
           GW IRRIGATION =  1740171648.0000             GW IRRIGATION =          11.2200
           SW IRRIGATION =           0.0000             SW IRRIGATION =           0.0000
        SYSTEM LOSSES GW =           0.0000          SYSTEM LOSSES GW =           0.0000
        SYSTEM LOSSES SW =           0.0000          SYSTEM LOSSES SW =           0.0000

               TOTAL OUT =  1740171648.0000                 TOTAL OUT =          11.2200

                IN - OUT =           0.0000                  IN - OUT =           0.0000

     PERCENT DISCREPANCY =           0.00         PERCENT DISCREPANCY =           0.00



1
  VOLUMETRIC BUDGET FOR ENTIRE MODEL AT END OF TIME STEP   30, STRESS PERIOD  46
  ------------------------------------------------------------------------------

     CUMULATIVE VOLUMES      L**3       RATES FOR THIS TIME STEP      L**3/T
     ------------------                 ------------------------

           IN:                                      IN:
           ---                                      ---
             STORAGE     =  2214511360.0000               STORAGE     =          18.0824
       CONSTANT HEAD     =           0.0000         CONSTANT HEAD     =           0.0000
     HEAD DEP BOUNDS     =    33905164.0000       HEAD DEP BOUNDS     =           0.2886
      STREAM LEAKAGE     =  1451516800.0000        STREAM LEAKAGE     =          12.3847
        UZF RECHARGE     =   119810104.0000          UZF RECHARGE     =          11.1592
               GW ET     =           0.0000                 GW ET     =           0.0000
     SURFACE LEAKAGE     =           0.0000       SURFACE LEAKAGE     =           0.0000
           AG WELLS      =           0.0000             AG WELLS      =           0.0000

                TOTAL IN =  3819743232.0000                  TOTAL IN =          41.9149

          OUT:                                     OUT:
          ----                                     ----
             STORAGE     =   829972416.0000               STORAGE     =          20.9562
       CONSTANT HEAD     =           0.0000         CONSTANT HEAD     =           0.0000
     HEAD DEP BOUNDS     =    34551024.0000       HEAD DEP BOUNDS     =           0.2888
      STREAM LEAKAGE     =  1197430016.0000        STREAM LEAKAGE     =           9.4493
        UZF RECHARGE     =           0.0000          UZF RECHARGE     =           0.0000
               GW ET     =    17607600.0000                 GW ET     =           0.0000
     SURFACE LEAKAGE     =           0.0000       SURFACE LEAKAGE     =           0.0000
           AG WELLS      =  1740171648.0000             AG WELLS      =          11.2200

               TOTAL OUT =  3819732736.0000                 TOTAL OUT =          41.9144

                IN - OUT =       10496.0000                  IN - OUT =       5.5695E-04

     PERCENT DISCREPANCY =           0.00         PERCENT DISCREPANCY =           0.00






         TIME SUMMARY AT END OF TIME STEP   30 IN STRESS PERIOD   46
                    SECONDS     MINUTES      HOURS       DAYS        YEARS
                    -----------------------------------------------------------
   TIME STEP LENGTH  87667.      1461.1      24.352      1.0147     2.77799E-03
 STRESS PERIOD TIME 2.63000E+06  43833.      730.56      30.440     8.33397E-02
         TOTAL TIME 1.18435E+08 1.97392E+06  32899.      1370.8      3.7530    
1
1
                            STRESS PERIOD NO.   47, LENGTH =   2630000.    
                            -----------------------------------------------

                              NUMBER OF TIME STEPS =    30

                               MULTIPLIER FOR DELT =     1.000

                            INITIAL TIME STEP SIZE =   87666.66    

 REUSING NON-PARAMETER GHB CELLS FROM LAST STRESS PERIOD

      2 GHB CELLS

 REUSING STREAM SEGMENT DATA FROM LAST STRESS PERIOD



            AREAL INFILTRATION RATE
 READING ON UNIT   19 WITH FORMAT: (FREE)              

            1           2           3           4           5           6           7           8           9          10
 ........................................................................................................................
   1   1.0000E-10  2.0000E-10   0.000       0.000       0.000       0.000       0.000       0.000       0.000       0.000    
   2   2.0000E-10  1.0000E-10  2.0000E-10   0.000       0.000      8.0000E-10  8.0000E-10  5.0000E-10   0.000       0.000    
   3    0.000      5.0000E-10  1.0000E-10  1.0000E-10  8.0000E-10  8.0000E-10  5.0000E-10  5.0000E-10   0.000       0.000    
   4   8.0000E-10  5.0000E-10  1.0000E-10  1.0000E-10  1.0000E-10  1.0000E-10  1.0000E-10  1.0000E-10  2.0000E-10   0.000    
   5   8.0000E-10  5.0000E-10  1.0000E-10  1.0000E-10  1.0000E-10  1.0000E-10  1.0000E-10  1.0000E-10  1.0000E-10  1.0000E-10
   6   8.0000E-10  5.0000E-10  5.0000E-10  2.0000E-10  2.0000E-10  1.0000E-10  1.0000E-10  1.0000E-10  1.0000E-10  5.0000E-10
   7   8.0000E-10  5.0000E-10  5.0000E-10  2.0000E-10  2.0000E-10  1.0000E-10  1.0000E-10  2.0000E-10  2.0000E-10   0.000    
   8    0.000      5.0000E-10  5.0000E-10  2.0000E-10  2.0000E-10  1.0000E-10  1.0000E-10  2.0000E-10  5.0000E-10   0.000    
   9    0.000      5.0000E-10  5.0000E-10  2.0000E-10  2.0000E-10  1.0000E-10  1.0000E-10  2.0000E-10  5.0000E-10   0.000    
  10    0.000      5.0000E-10  5.0000E-10  2.0000E-10  2.0000E-10  1.0000E-10  1.0000E-10  2.0000E-10  5.0000E-10  8.0000E-10
  11    0.000      1.0000E-10  1.0000E-10  1.0000E-10  1.0000E-10  1.0000E-10  1.0000E-10  2.0000E-10  5.0000E-10   0.000    
  12   1.0000E-10  1.0000E-10  1.0000E-10  1.0000E-10  1.0000E-10  1.0000E-10  1.0000E-10  1.0000E-10  2.0000E-10   0.000    
  13   1.0000E-10  1.0000E-10  2.0000E-10  2.0000E-10  2.0000E-10  2.0000E-10  2.0000E-10  1.0000E-10  1.0000E-10   0.000    
  14    0.000      2.0000E-10  5.0000E-10  5.0000E-10  5.0000E-10  5.0000E-10  5.0000E-10  2.0000E-10  1.0000E-10   0.000    
  15    0.000       0.000      8.0000E-10  8.0000E-10  8.0000E-10  8.0000E-10   0.000       0.000       0.000       0.000    

                  ET RATE =  5.000000E-09

 USING ET EXTINCTION DEPTH FROM PREVIOUS STRESS PERIOD. CURRENT PERIOD IS:      47

 USING EXTINCTION WATER CONTENT FROM PREVIOUS STRESS PERIOD. CURRENT PERIOD IS:      47

 USING AIR ENTRY PRESSURE FROM PREVIOUS STRESS PERIOD. CURRENT PERIOD IS:      47

 USING ROOT PRESSURE HEAD FROM PREVIOUS STRESS PERIOD. CURRENT PERIOD IS:      47

 USING ROOT ACTIVITY FROM PREVIOUS STRESS PERIOD. CURRENT PERIOD IS:      47

 PROCESSING AG STRESS PERIOD DATA

 READING AG STRESS PERIOD DATA

 READING IRRIGATION WELL

 END PROCESSING AG STRESS PERIOD DATA OPTIONS
 
 SOLVING FOR HEAD 
                                                   Max.-Head-Change                         Max.-Flux-Residual
  Residual-Control   Outer-Iter.   Inner-Iter.     Column Row Layer    Maximum-Head-Change  Column Row Layer    Maximum-Flux-Residual          L2-NORM 
          0                 1           2             5    7     1       0.1136973011E+00       5    7    1         0.6046843624E+01      0.1290857111E+02
          0                 2           2             5    7     1       0.2642281442E-01       5    7    1         0.1463676227E+01      0.1944548160E+01
          0                 3           2             5    7     1      -0.2568913339E-02       5    7    1        -0.1458308594E+00      0.1793325608E+00
          0                 4           2             5    7     1       0.1748072010E-03       5    7    1         0.1016938827E-01      0.1180695114E-01
          0                 5           1             5    7     1      -0.6947386557E-05       5    7    1        -0.4141838499E-03      0.4660862379E-03

    ------------------------------------------------
       NWT REQUIRED            5 OUTER ITERATIONS 
       AND A TOTAL OF          9 INNER ITERATIONS.
    ------------------------------------------------

 NO OUTPUT CONTROL FOR STRESS PERIOD   47   TIME STEP    1
 
 SOLVING FOR HEAD 
                                                   Max.-Head-Change                         Max.-Flux-Residual
  Residual-Control   Outer-Iter.   Inner-Iter.     Column Row Layer    Maximum-Head-Change  Column Row Layer    Maximum-Flux-Residual          L2-NORM 
          0                 1           2             4    7     1       0.1327493266E+00       4    7    1         0.7010304131E+01      0.1367231555E+02
          0                 2           2             5    6     1       0.2174232576E-01       5    6    1         0.1213879327E+01      0.1743706929E+01
          0                 3           2             5    6     1       0.5372077615E-02       5    6    1         0.2952594753E+00      0.3080903059E+00
          0                 4           2             5    6     1       0.1327338994E-02       5    6    1         0.7324410569E-01      0.7332346230E-01
          0                 5           2             5    6     1       0.3279604417E-03       5    6    1         0.1808580510E-01      0.1808652404E-01
          0                 6           1             5    6     1       0.8103286478E-04       5    6    1         0.4468733147E-02      0.4468899388E-02

    ------------------------------------------------
       NWT REQUIRED            6 OUTER ITERATIONS 
       AND A TOTAL OF         11 INNER ITERATIONS.
    ------------------------------------------------

 NO OUTPUT CONTROL FOR STRESS PERIOD   47   TIME STEP    2
 
 SOLVING FOR HEAD 
                                                   Max.-Head-Change                         Max.-Flux-Residual
  Residual-Control   Outer-Iter.   Inner-Iter.     Column Row Layer    Maximum-Head-Change  Column Row Layer    Maximum-Flux-Residual          L2-NORM 
          0                 1           2             4    7     1       0.1310129196E+00       4    7    1         0.6917420339E+01      0.1340424445E+02
          0                 2           2             4    7     1      -0.1272637231E-01       4    7    1        -0.6913903069E+00      0.1288016520E+01
          0                 3           2             4    7     1       0.8558794202E-03       4    7    1         0.4836083643E-01      0.8300635382E-01
          0                 4           1             4    7     1      -0.3401450583E-04       4    7    1        -0.1978969572E-02      0.3442635738E-02

    ------------------------------------------------
       NWT REQUIRED            4 OUTER ITERATIONS 
       AND A TOTAL OF          7 INNER ITERATIONS.
    ------------------------------------------------

 NO OUTPUT CONTROL FOR STRESS PERIOD   47   TIME STEP    3
 
 SOLVING FOR HEAD 
                                                   Max.-Head-Change                         Max.-Flux-Residual
  Residual-Control   Outer-Iter.   Inner-Iter.     Column Row Layer    Maximum-Head-Change  Column Row Layer    Maximum-Flux-Residual          L2-NORM 
          0                 1           2             4    7     1       0.1289362878E+00       4    7    1         0.6807015693E+01      0.1316586273E+02
          0                 2           2             4    8     1       0.2428186822E-01       4    8    1         0.1331971196E+01      0.1781829178E+01
          0                 3           2             4    8     1       0.6137846687E-02       4    8    1         0.3320817586E+00      0.3409418022E+00
          0                 4           2             4    8     1       0.2218665147E-03       4    8    1         0.1206642118E-01      0.1242170417E-01
          0                 5           1             4    8     1      -0.2157024164E-04       4    8    1        -0.1203944885E-02      0.1205074770E-02

    ------------------------------------------------
       NWT REQUIRED            5 OUTER ITERATIONS 
       AND A TOTAL OF          9 INNER ITERATIONS.
    ------------------------------------------------

 NO OUTPUT CONTROL FOR STRESS PERIOD   47   TIME STEP    4
 
 SOLVING FOR HEAD 
                                                   Max.-Head-Change                         Max.-Flux-Residual
  Residual-Control   Outer-Iter.   Inner-Iter.     Column Row Layer    Maximum-Head-Change  Column Row Layer    Maximum-Flux-Residual          L2-NORM 
          0                 1           2             4    7     1       0.1273993722E+00       4    7    1         0.6727211965E+01      0.1292057476E+02
          0                 2           2             4    7     1       0.2834944504E-01       4    7    1         0.1563158951E+01      0.1912912085E+01
          0                 3           2             5    7     1       0.6996113601E-03       5    7    1         0.3960880330E-01      0.7895166735E-01
          0                 4           1             5    7     1      -0.2780396366E-04       5    7    1        -0.1605363705E-02      0.3432730853E-02

    ------------------------------------------------
       NWT REQUIRED            4 OUTER ITERATIONS 
       AND A TOTAL OF          7 INNER ITERATIONS.
    ------------------------------------------------

 NO OUTPUT CONTROL FOR STRESS PERIOD   47   TIME STEP    5
 
 SOLVING FOR HEAD 
                                                   Max.-Head-Change                         Max.-Flux-Residual
  Residual-Control   Outer-Iter.   Inner-Iter.     Column Row Layer    Maximum-Head-Change  Column Row Layer    Maximum-Flux-Residual          L2-NORM 
          0                 1           2             4    7     1       0.1239284294E+00       4    7    1         0.6510647479E+01      0.1343718355E+02
          0                 2           2             4    7     1      -0.1182580535E-01       4    7    1        -0.6507267081E+00      0.1109627097E+01
          0                 3           2             4    7     1       0.7993946150E-03       4    7    1         0.4551700932E-01      0.7950267414E-01
          0                 4           1             5    7     1      -0.7384606702E-04       5    7    1        -0.4120587292E-02      0.5204482110E-02

    ------------------------------------------------
       NWT REQUIRED            4 OUTER ITERATIONS 
       AND A TOTAL OF          7 INNER ITERATIONS.
    ------------------------------------------------

 NO OUTPUT CONTROL FOR STRESS PERIOD   47   TIME STEP    6
 
 SOLVING FOR HEAD 
                                                   Max.-Head-Change                         Max.-Flux-Residual
  Residual-Control   Outer-Iter.   Inner-Iter.     Column Row Layer    Maximum-Head-Change  Column Row Layer    Maximum-Flux-Residual          L2-NORM 
          0                 1           2             4    7     1       0.1228246130E+00       4    7    1         0.6450437325E+01      0.1335985439E+02
          0                 2           2             5    7     1       0.2448176873E-01       5    7    1         0.1375521602E+01      0.1839907813E+01
          0                 3           2             5    7     1      -0.2380212487E-02       5    7    1        -0.1367940175E+00      0.1617220515E+00
          0                 4           2             5    7     1       0.1619685155E-03       5    7    1         0.9522017791E-02      0.1018047341E-01
          0                 5           1             5    7     1      -0.6437230256E-05       5    7    1        -0.3871358811E-03      0.3905027310E-03

    ------------------------------------------------
       NWT REQUIRED            5 OUTER ITERATIONS 
       AND A TOTAL OF          9 INNER ITERATIONS.
    ------------------------------------------------

 NO OUTPUT CONTROL FOR STRESS PERIOD   47   TIME STEP    7
 
 SOLVING FOR HEAD 
                                                   Max.-Head-Change                         Max.-Flux-Residual
  Residual-Control   Outer-Iter.   Inner-Iter.     Column Row Layer    Maximum-Head-Change  Column Row Layer    Maximum-Flux-Residual          L2-NORM 
          0                 1           2             4    7     1       0.1219729013E+00       4    7    1         0.6409744623E+01      0.1313193734E+02
          0                 2           2             4    7     1      -0.1185175200E-01       4    7    1        -0.6406420153E+00      0.1351921952E+01
          0                 3           2             5    8     1       0.2228498910E-02       5    8    1         0.1217748767E+00      0.1500344603E+00
          0                 4           1             5    8     1       0.5503664457E-03       5    8    1         0.3040923199E-01      0.3060884314E-01
          0                 5           1             5    8     1       0.1359222681E-03       5    8    1         0.7497209705E-02      0.7497818999E-02
          0                 6           1             5    8     1       0.3356830815E-04       5    8    1         0.1851610482E-02      0.1851725708E-02

    ------------------------------------------------
       NWT REQUIRED            6 OUTER ITERATIONS 
       AND A TOTAL OF          9 INNER ITERATIONS.
    ------------------------------------------------

 NO OUTPUT CONTROL FOR STRESS PERIOD   47   TIME STEP    8
 
 SOLVING FOR HEAD 
                                                   Max.-Head-Change                         Max.-Flux-Residual
  Residual-Control   Outer-Iter.   Inner-Iter.     Column Row Layer    Maximum-Head-Change  Column Row Layer    Maximum-Flux-Residual          L2-NORM 
          0                 1           2             4    7     1       0.1205894898E+00       4    7    1         0.6337764000E+01      0.1291726300E+02
          0                 2           2             5    6     1       0.1771326714E-01       5    6    1         0.9946686703E+00      0.1752699458E+01
          0                 3           2             5    6     1       0.4376331185E-02       5    6    1         0.2401428889E+00      0.2679623127E+00
          0                 4           2             5    6     1       0.1081249300E-02       5    6    1         0.5968101608E-01      0.6006902595E-01
          0                 5           2             5    6     1       0.2671414028E-03       5    6    1         0.1473134216E-01      0.1473423618E-01
          0                 6           1             5    6     1       0.6600194116E-04       5    6    1         0.3639544823E-02      0.3639784151E-02

    ------------------------------------------------
       NWT REQUIRED            6 OUTER ITERATIONS 
       AND A TOTAL OF         11 INNER ITERATIONS.
    ------------------------------------------------

 NO OUTPUT CONTROL FOR STRESS PERIOD   47   TIME STEP    9
 
 SOLVING FOR HEAD 
                                                   Max.-Head-Change                         Max.-Flux-Residual
  Residual-Control   Outer-Iter.   Inner-Iter.     Column Row Layer    Maximum-Head-Change  Column Row Layer    Maximum-Flux-Residual          L2-NORM 
          0                 1           2             4    7     1       0.1192399327E+00       4    7    1         0.6266751265E+01      0.1269761124E+02
          0                 2           2             4    7     1       0.1808680736E-01       4    7    1         0.9934655977E+00      0.1435411751E+01
          0                 3           2             4    7     1       0.4597212375E-02       4    7    1         0.2473713332E+00      0.2898184294E+00
          0                 4           2             4    7     1       0.1168777757E-02       4    7    1         0.6320087529E-01      0.7271913095E-01
          0                 5           2             4    7     1       0.2972156868E-03       4    7    1         0.1605614875E-01      0.1857794362E-01
          0                 6           1             4    7     1       0.7559842052E-04       4    7    1         0.4083177928E-02      0.4752862319E-02

    ------------------------------------------------
       NWT REQUIRED            6 OUTER ITERATIONS 
       AND A TOTAL OF         11 INNER ITERATIONS.
    ------------------------------------------------

 NO OUTPUT CONTROL FOR STRESS PERIOD   47   TIME STEP   10
 
 SOLVING FOR HEAD 
                                                   Max.-Head-Change                         Max.-Flux-Residual
  Residual-Control   Outer-Iter.   Inner-Iter.     Column Row Layer    Maximum-Head-Change  Column Row Layer    Maximum-Flux-Residual          L2-NORM 
          0                 1           2             4    7     1       0.1164261155E+00       4    7    1         0.6116540036E+01      0.1248091580E+02
          0                 2           2             4    6     1       0.2284206534E-01       4    6    1         0.1256340629E+01      0.1632830803E+01
          0                 3           2             4    6     1       0.5736207735E-02       4    6    1         0.3119645297E+00      0.3234427695E+00
          0                 4           2             4    6     1       0.1440508455E-02       4    6    1         0.7856051440E-01      0.7870765482E-01
          0                 5           2             4    6     1       0.3617484797E-03       4    6    1         0.1971973164E-01      0.1972112060E-01
          0                 6           1             4    6     1       0.9084430395E-04       4    6    1         0.4952483933E-02      0.4952539565E-02

    ------------------------------------------------
       NWT REQUIRED            6 OUTER ITERATIONS 
       AND A TOTAL OF         11 INNER ITERATIONS.
    ------------------------------------------------

 NO OUTPUT CONTROL FOR STRESS PERIOD   47   TIME STEP   11
 
 SOLVING FOR HEAD 
                                                   Max.-Head-Change                         Max.-Flux-Residual
  Residual-Control   Outer-Iter.   Inner-Iter.     Column Row Layer    Maximum-Head-Change  Column Row Layer    Maximum-Flux-Residual          L2-NORM 
          0                 1           2             4    7     1       0.1156460043E+00       4    7    1         0.6079629024E+01      0.1226392147E+02
          0                 2           2             4    7     1      -0.1124220653E-01       4    7    1        -0.6076480827E+00      0.1223816837E+01
          0                 3           2             4    7     1       0.7649735161E-03       4    7    1         0.4250318652E-01      0.8560552193E-01
          0                 4           1             4    7     1      -0.3040083189E-04       4    7    1        -0.1736202199E-02      0.3497080788E-02

    ------------------------------------------------
       NWT REQUIRED            4 OUTER ITERATIONS 
       AND A TOTAL OF          7 INNER ITERATIONS.
    ------------------------------------------------

 NO OUTPUT CONTROL FOR STRESS PERIOD   47   TIME STEP   12
 
 SOLVING FOR HEAD 
                                                   Max.-Head-Change                         Max.-Flux-Residual
  Residual-Control   Outer-Iter.   Inner-Iter.     Column Row Layer    Maximum-Head-Change  Column Row Layer    Maximum-Flux-Residual          L2-NORM 
          0                 1           2             4    7     1       0.1142614494E+00       4    7    1         0.6008662128E+01      0.1160079055E+02
          0                 2           2             4    7     1      -0.1081140785E-01       4    7    1        -0.6005554449E+00      0.1204555791E+01
          0                 3           2             5    7     1       0.2546927264E-02       5    7    1         0.1392624331E+00      0.1576176951E+00
          0                 4           2             5    7     1       0.6286202427E-03       5    7    1         0.3474707840E-01      0.3486605378E-01
          0                 5           2             5    7     1       0.1551527035E-03       5    7    1         0.8561487047E-02      0.8562154297E-02
          0                 6           1             5    7     1       0.3829397874E-04       5    7    1         0.2113182286E-02      0.2113320634E-02

    ------------------------------------------------
       NWT REQUIRED            6 OUTER ITERATIONS 
       AND A TOTAL OF         11 INNER ITERATIONS.
    ------------------------------------------------

 NO OUTPUT CONTROL FOR STRESS PERIOD   47   TIME STEP   13
 
 SOLVING FOR HEAD 
                                                   Max.-Head-Change                         Max.-Flux-Residual
  Residual-Control   Outer-Iter.   Inner-Iter.     Column Row Layer    Maximum-Head-Change  Column Row Layer    Maximum-Flux-Residual          L2-NORM 
          0                 1           2             4    7     1       0.1132031592E+00       4    7    1         0.5956409360E+01      0.1140103601E+02
          0                 2           2             4    7     1      -0.1071249190E-01       4    7    1        -0.5953336095E+00      0.1195029071E+01
          0                 3           2             5    7     1      -0.1010601355E-02       5    7    1        -0.5868386090E-01      0.9358076087E-01
          0                 4           1             5    7     1       0.6876987755E-04       5    7    1         0.4067665676E-02      0.5058916588E-02

    ------------------------------------------------
       NWT REQUIRED            4 OUTER ITERATIONS 
       AND A TOTAL OF          7 INNER ITERATIONS.
    ------------------------------------------------

 NO OUTPUT CONTROL FOR STRESS PERIOD   47   TIME STEP   14
 
 SOLVING FOR HEAD 
                                                   Max.-Head-Change                         Max.-Flux-Residual
  Residual-Control   Outer-Iter.   Inner-Iter.     Column Row Layer    Maximum-Head-Change  Column Row Layer    Maximum-Flux-Residual          L2-NORM 
          0                 1           2             4    7     1       0.1120298452E+00       4    7    1         0.5897364488E+01      0.1121293869E+02
          0                 2           2             4    6     1      -0.9226704061E-02       4    6    1        -0.5071428875E+00      0.9759632733E+00
          0                 3           2             4    7     1      -0.1116296251E-02       4    7    1        -0.6384578607E-01      0.9231629277E-01
          0                 4           1             4    7     1      -0.3038396834E-03       4    7    1        -0.1694036628E-01      0.1716402216E-01
          0                 5           1             4    7     1      -0.8269911115E-04       4    7    1        -0.4626732967E-02      0.4626773319E-02

    ------------------------------------------------
       NWT REQUIRED            5 OUTER ITERATIONS 
       AND A TOTAL OF          8 INNER ITERATIONS.
    ------------------------------------------------

 NO OUTPUT CONTROL FOR STRESS PERIOD   47   TIME STEP   15
 
 SOLVING FOR HEAD 
                                                   Max.-Head-Change                         Max.-Flux-Residual
  Residual-Control   Outer-Iter.   Inner-Iter.     Column Row Layer    Maximum-Head-Change  Column Row Layer    Maximum-Flux-Residual          L2-NORM 
          0                 1           2             4    7     1       0.1103299813E+00       4    7    1         0.5808325207E+01      0.1103891391E+02
          0                 2           2             4    7     1       0.2777897114E-01       4    7    1         0.1531349052E+01      0.1796011049E+01
          0                 3           2             4    7     1      -0.2362488793E-02       4    7    1        -0.1335702127E+00      0.1492458936E+00
          0                 4           1             4    7     1       0.1607608682E-03       4    7    1         0.9304789697E-02      0.9717094243E-02
          0                 5           1             4    7     1      -0.6389114863E-05       4    7    1        -0.3785862812E-03      0.3807973737E-03

    ------------------------------------------------
       NWT REQUIRED            5 OUTER ITERATIONS 
       AND A TOTAL OF          8 INNER ITERATIONS.
    ------------------------------------------------

 NO OUTPUT CONTROL FOR STRESS PERIOD   47   TIME STEP   16
 
 SOLVING FOR HEAD 
                                                   Max.-Head-Change                         Max.-Flux-Residual
  Residual-Control   Outer-Iter.   Inner-Iter.     Column Row Layer    Maximum-Head-Change  Column Row Layer    Maximum-Flux-Residual          L2-NORM 
          0                 1           2             4    7     1       0.1071203561E+00       4    7    1         0.5635935386E+01      0.1085836544E+02
          0                 2           2             4    7     1      -0.1011500952E-01       4    7    1        -0.5633021453E+00      0.9248516185E+00
          0                 3           2             5    6     1       0.1991670808E-02       5    6    1         0.1083637002E+00      0.1349546491E+00
          0                 4           2             5    6     1       0.4979790194E-03       5    6    1         0.2725350794E-01      0.3151544117E-01
          0                 5           2             5    6     1       0.1245752542E-03       5    6    1         0.6808646125E-02      0.7935713472E-02
          0                 6           1             5    6     1       0.3118015324E-04       5    6    1         0.1703564562E-02      0.2006484167E-02

    ------------------------------------------------
       NWT REQUIRED            6 OUTER ITERATIONS 
       AND A TOTAL OF         11 INNER ITERATIONS.
    ------------------------------------------------

 NO OUTPUT CONTROL FOR STRESS PERIOD   47   TIME STEP   17
 
 SOLVING FOR HEAD 
                                                   Max.-Head-Change                         Max.-Flux-Residual
  Residual-Control   Outer-Iter.   Inner-Iter.     Column Row Layer    Maximum-Head-Change  Column Row Layer    Maximum-Flux-Residual          L2-NORM 
          0                 1           2             4    7     1       0.1060863026E+00       4    7    1         0.5583530716E+01      0.1068037309E+02
          0                 2           2             4    8     1       0.2039212195E-01       4    8    1         0.1116392364E+01      0.1991402139E+01
          0                 3           2             4    8     1       0.3835441168E-02       4    8    1         0.2073691705E+00      0.2470414434E+00
          0                 4           2             4    8     1      -0.3728875719E-03       4    8    1        -0.2077519127E-01      0.2256718434E-01
          0                 5           1             4    8     1       0.2537368194E-04       4    8    1         0.1455153562E-02      0.1496546245E-02

    ------------------------------------------------
       NWT REQUIRED            5 OUTER ITERATIONS 
       AND A TOTAL OF          9 INNER ITERATIONS.
    ------------------------------------------------

 NO OUTPUT CONTROL FOR STRESS PERIOD   47   TIME STEP   18
 
 SOLVING FOR HEAD 
                                                   Max.-Head-Change                         Max.-Flux-Residual
  Residual-Control   Outer-Iter.   Inner-Iter.     Column Row Layer    Maximum-Head-Change  Column Row Layer    Maximum-Flux-Residual          L2-NORM 
          0                 1           2             4    7     1       0.1054824392E+00       4    7    1         0.5555379130E+01      0.1049220286E+02
          0                 2           2             4    7     1      -0.1025523069E-01       4    7    1        -0.5552518961E+00      0.1048700146E+01
          0                 3           2             4    7     1       0.6978158419E-03       4    7    1         0.3883826901E-01      0.7335724898E-01
          0                 4           1             4    7     1      -0.2773198657E-04       4    7    1        -0.1586498360E-02      0.2996796693E-02

    ------------------------------------------------
       NWT REQUIRED            4 OUTER ITERATIONS 
       AND A TOTAL OF          7 INNER ITERATIONS.
    ------------------------------------------------

 NO OUTPUT CONTROL FOR STRESS PERIOD   47   TIME STEP   19
 
 SOLVING FOR HEAD 
                                                   Max.-Head-Change                         Max.-Flux-Residual
  Residual-Control   Outer-Iter.   Inner-Iter.     Column Row Layer    Maximum-Head-Change  Column Row Layer    Maximum-Flux-Residual          L2-NORM 
          0                 1           2             4    7     1       0.1040503511E+00       4    7    1         0.5480556992E+01      0.1034439992E+02
          0                 2           2             4    7     1      -0.1010788815E-01       4    7    1        -0.5477735372E+00      0.1022342631E+01
          0                 3           2             4    7     1       0.6798989854E-03       4    7    1         0.3831520140E-01      0.6613052765E-01
          0                 4           1             4    7     1      -0.2702034039E-04       4    7    1        -0.1565528425E-02      0.2702976936E-02

    ------------------------------------------------
       NWT REQUIRED            4 OUTER ITERATIONS 
       AND A TOTAL OF          7 INNER ITERATIONS.
    ------------------------------------------------

 NO OUTPUT CONTROL FOR STRESS PERIOD   47   TIME STEP   20
 
 SOLVING FOR HEAD 
                                                   Max.-Head-Change                         Max.-Flux-Residual
  Residual-Control   Outer-Iter.   Inner-Iter.     Column Row Layer    Maximum-Head-Change  Column Row Layer    Maximum-Flux-Residual          L2-NORM 
          0                 1           2             4    7     1       0.1026282379E+00       4    7    1         0.5406155107E+01      0.1020113294E+02
          0                 2           2             5    7     1       0.1731649199E-01       5    7    1         0.9709170405E+00      0.1268816690E+01
          0                 3           2             5    7     1       0.4241120728E-02       5    7    1         0.2348251536E+00      0.2537098103E+00
          0                 4           2             5    7     1       0.1038446925E-02       5    7    1         0.5769649831E-01      0.6113366322E-01
          0                 5           2             5    7     1       0.2541880140E-03       5    7    1         0.1411860696E-01      0.1502875107E-01
          0                 6           1             5    7     1       0.6219810472E-04       5    7    1         0.3455982320E-02      0.3699590873E-02

    ------------------------------------------------
       NWT REQUIRED            6 OUTER ITERATIONS 
       AND A TOTAL OF         11 INNER ITERATIONS.
    ------------------------------------------------

 NO OUTPUT CONTROL FOR STRESS PERIOD   47   TIME STEP   21
 
 SOLVING FOR HEAD 
                                                   Max.-Head-Change                         Max.-Flux-Residual
  Residual-Control   Outer-Iter.   Inner-Iter.     Column Row Layer    Maximum-Head-Change  Column Row Layer    Maximum-Flux-Residual          L2-NORM 
          0                 1           2             4    7     1       0.1010512323E+00       4    7    1         0.5354292922E+01      0.9382953260E+01
          0                 2           2             4    7     1       0.2560610231E-01       4    7    1         0.1399117645E+01      0.1559030437E+01
          0                 3           2             4    7     1       0.4091934584E-02       4    7    1         0.2227066523E+00      0.2283924217E+00
          0                 4           1             4    7     1      -0.3978255677E-03       4    7    1        -0.2229516816E-01      0.2240801005E-01
          0                 5           1             4    7     1       0.2707073793E-04       4    7    1         0.1560771917E-02      0.1562328511E-02

    ------------------------------------------------
       NWT REQUIRED            5 OUTER ITERATIONS 
       AND A TOTAL OF          8 INNER ITERATIONS.
    ------------------------------------------------

 NO OUTPUT CONTROL FOR STRESS PERIOD   47   TIME STEP   22
 
 SOLVING FOR HEAD 
                                                   Max.-Head-Change                         Max.-Flux-Residual
  Residual-Control   Outer-Iter.   Inner-Iter.     Column Row Layer    Maximum-Head-Change  Column Row Layer    Maximum-Flux-Residual          L2-NORM 
          0                 1           2             4    7     1       0.9655916993E-01       4    7    1         0.5153417473E+01      0.8490650827E+01
          0                 2           2             4    7     1      -0.9387872526E-02       4    7    1        -0.5150884319E+00      0.8486662514E+00
          0                 3           2             4    7     1       0.6388014589E-03       4    7    1         0.3602922983E-01      0.5936641339E-01
          0                 4           1             4    7     1      -0.2538709317E-04       4    7    1        -0.1471777076E-02      0.2425361842E-02

    ------------------------------------------------
       NWT REQUIRED            4 OUTER ITERATIONS 
       AND A TOTAL OF          7 INNER ITERATIONS.
    ------------------------------------------------

 NO OUTPUT CONTROL FOR STRESS PERIOD   47   TIME STEP   23
 
 SOLVING FOR HEAD 
                                                   Max.-Head-Change                         Max.-Flux-Residual
  Residual-Control   Outer-Iter.   Inner-Iter.     Column Row Layer    Maximum-Head-Change  Column Row Layer    Maximum-Flux-Residual          L2-NORM 
          0                 1           2             4    7     1       0.9406893829E-01       4    7    1         0.5016930498E+01      0.8342465843E+01
          0                 2           2             4    7     1      -0.9145748649E-02       4    7    1        -0.5014455379E+00      0.8338548628E+00
          0                 3           2             4    7     1       0.6223258477E-03       4    7    1         0.3507492946E-01      0.5833040966E-01
          0                 4           1             4    7     1      -0.2473230344E-04       4    7    1        -0.1432793074E-02      0.2383041772E-02

    ------------------------------------------------
       NWT REQUIRED            4 OUTER ITERATIONS 
       AND A TOTAL OF          7 INNER ITERATIONS.
    ------------------------------------------------

 NO OUTPUT CONTROL FOR STRESS PERIOD   47   TIME STEP   24
 
 SOLVING FOR HEAD 
                                                   Max.-Head-Change                         Max.-Flux-Residual
  Residual-Control   Outer-Iter.   Inner-Iter.     Column Row Layer    Maximum-Head-Change  Column Row Layer    Maximum-Flux-Residual          L2-NORM 
          0                 1           2             4    7     1       0.9170573752E-01       4    7    1         0.4887548789E+01      0.8202226841E+01
          0                 2           2             4    6     1       0.1696592163E-01       4    6    1         0.9384092061E+00      0.1171556284E+01
          0                 3           2             4    6     1       0.4260110721E-02       4    6    1         0.2313408626E+00      0.2365962540E+00
          0                 4           2             4    6     1       0.1069710624E-02       4    6    1         0.5835762177E-01      0.5838480279E-01
          0                 5           2             4    6     1       0.2686034012E-03       4    6    1         0.1464276065E-01      0.1464336108E-01
          0                 6           1             4    6     1       0.6744609320E-04       4    6    1         0.3676958274E-02      0.3677070870E-02

    ------------------------------------------------
       NWT REQUIRED            6 OUTER ITERATIONS 
       AND A TOTAL OF         11 INNER ITERATIONS.
    ------------------------------------------------

 NO OUTPUT CONTROL FOR STRESS PERIOD   47   TIME STEP   25
 
 SOLVING FOR HEAD 
                                                   Max.-Head-Change                         Max.-Flux-Residual
  Residual-Control   Outer-Iter.   Inner-Iter.     Column Row Layer    Maximum-Head-Change  Column Row Layer    Maximum-Flux-Residual          L2-NORM 
          0                 1           2             4    7     1       0.8985911511E-01       4    7    1         0.4788731680E+01      0.7446522272E+01
          0                 2           2             4    7     1      -0.8584637397E-02       4    7    1        -0.4786358249E+00      0.6529807547E+00
          0                 3           2             4    7     1       0.5841537051E-03       4    7    1         0.3355945348E-01      0.4779225193E-01
          0                 4           1             4    7     1      -0.2321581115E-04       4    7    1        -0.1378623891E-02      0.2241823976E-02

    ------------------------------------------------
       NWT REQUIRED            4 OUTER ITERATIONS 
       AND A TOTAL OF          7 INNER ITERATIONS.
    ------------------------------------------------

 NO OUTPUT CONTROL FOR STRESS PERIOD   47   TIME STEP   26
 
 SOLVING FOR HEAD 
                                                   Max.-Head-Change                         Max.-Flux-Residual
  Residual-Control   Outer-Iter.   Inner-Iter.     Column Row Layer    Maximum-Head-Change  Column Row Layer    Maximum-Flux-Residual          L2-NORM 
          0                 1           2             4    7     1       0.8778936908E-01       4    7    1         0.4676935675E+01      0.7306133799E+01
          0                 2           2             4    7     1      -0.8535202588E-02       4    7    1        -0.4674612249E+00      0.7302799400E+00
          0                 3           2             4    7     1       0.5807808843E-03       4    7    1         0.3269779328E-01      0.5108610239E-01
          0                 4           1             4    7     1      -0.2308121340E-04       4    7    1        -0.1335686396E-02      0.2087146939E-02

    ------------------------------------------------
       NWT REQUIRED            4 OUTER ITERATIONS 
       AND A TOTAL OF          7 INNER ITERATIONS.
    ------------------------------------------------

 NO OUTPUT CONTROL FOR STRESS PERIOD   47   TIME STEP   27
 
 SOLVING FOR HEAD 
                                                   Max.-Head-Change                         Max.-Flux-Residual
  Residual-Control   Outer-Iter.   Inner-Iter.     Column Row Layer    Maximum-Head-Change  Column Row Layer    Maximum-Flux-Residual          L2-NORM 
          0                 1           2             4    6     1       0.7194017299E-01       4    6    1         0.3862001910E+01      0.5951465005E+01
          0                 2           2             4    6     1      -0.6994259215E-02       4    6    1        -0.3860051833E+00      0.5948909933E+00
          0                 3           2             4    6     1       0.4759313699E-03       4    6    1         0.2700033589E-01      0.4161700318E-01
          0                 4           1             4    6     1      -0.1891459023E-04       4    6    1        -0.1102958692E-02      0.1700413638E-02

    ------------------------------------------------
       NWT REQUIRED            4 OUTER ITERATIONS 
       AND A TOTAL OF          7 INNER ITERATIONS.
    ------------------------------------------------

 NO OUTPUT CONTROL FOR STRESS PERIOD   47   TIME STEP   28
 
 SOLVING FOR HEAD 
                                                   Max.-Head-Change                         Max.-Flux-Residual
  Residual-Control   Outer-Iter.   Inner-Iter.     Column Row Layer    Maximum-Head-Change  Column Row Layer    Maximum-Flux-Residual          L2-NORM 
          0                 1           2             4    6     1       0.6968230907E-01       4    6    1         0.3737844150E+01      0.5852414618E+01
          0                 2           2             4    6     1      -0.6774735669E-02       4    6    1        -0.3735952085E+00      0.5849906051E+00
          0                 3           2             4    6     1       0.4609935203E-03       4    6    1         0.2613226925E-01      0.4092447383E-01
          0                 4           1             4    6     1      -0.1832091392E-04       4    6    1        -0.1067497272E-02      0.1672126407E-02

    ------------------------------------------------
       NWT REQUIRED            4 OUTER ITERATIONS 
       AND A TOTAL OF          7 INNER ITERATIONS.
    ------------------------------------------------

 NO OUTPUT CONTROL FOR STRESS PERIOD   47   TIME STEP   29
 
 SOLVING FOR HEAD 
                                                   Max.-Head-Change                         Max.-Flux-Residual
  Residual-Control   Outer-Iter.   Inner-Iter.     Column Row Layer    Maximum-Head-Change  Column Row Layer    Maximum-Flux-Residual          L2-NORM 
          0                 1           2             4    6     1       0.6754725994E-01       4    6    1         0.3620529683E+01      0.5758882903E+01
          0                 2           2             4    6     1      -0.6567153135E-02       4    6    1        -0.3618692566E+00      0.5756418361E+00
          0                 3           2             4    6     1       0.4468682216E-03       4    6    1         0.2531204974E-01      0.4027052464E-01
          0                 4           1             4    6     1      -0.1775953159E-04       4    6    1        -0.1033990500E-02      0.1645410789E-02

    ------------------------------------------------
       NWT REQUIRED            4 OUTER ITERATIONS 
       AND A TOTAL OF          7 INNER ITERATIONS.
    ------------------------------------------------

 NO OUTPUT CONTROL FOR STRESS PERIOD   47   TIME STEP   30



 STREAM LISTING     PERIOD     47   STEP       30

 LAYER ROW COL. STREAM  RCH.  FLOW INTO     FLOW TO   FLOW OUT OF   OVRLND.     DIRECT     STREAM       STREAM     STREAM     STREAM   STREAMBED  STREAMBED
                SEG.NO.  NO.  STRM. RCH.    AQUIFER    STRM. RCH.    RUNOFF     PRECIP       ET          HEAD       DEPTH      WIDTH   CONDCTNC.   GRADIENT

   1    1    1     1     1    1.9000E+01  2.1427E-01   1.8786E+01  0.000E+00  0.000E+00  0.000E+00  1.09413E+03  1.082E+00  1.166E+01  5.249E-02  1.361E+00
   1    2    2     1     2    1.8786E+01  3.3054E-01   1.8455E+01  0.000E+00  0.000E+00  0.000E+00  1.08914E+03  1.077E+00  1.158E+01  8.107E-02  1.359E+00
   1    3    3     1     3    1.8455E+01  2.8064E-01   1.8175E+01  0.000E+00  0.000E+00  0.000E+00  1.08349E+03  1.072E+00  1.149E+01  6.892E-02  1.357E+00
   1    3    4     1     4    1.8175E+01  2.5740E-01   1.7917E+01  0.000E+00  0.000E+00  0.000E+00  1.07848E+03  1.068E+00  1.140E+01  6.328E-02  1.356E+00
   1    4    5     2     1    1.5917E+01  3.0542E-01   1.5612E+01  0.000E+00  0.000E+00  0.000E+00  1.07285E+03  9.157E-01  1.200E+01  7.800E-02  1.305E+00
   1    5    6     2     2    1.5612E+01  2.3438E-01   1.5377E+01  0.000E+00  0.000E+00  0.000E+00  1.06742E+03  9.063E-01  1.200E+01  6.000E-02  1.302E+00
   1    6    6     2     3    1.5377E+01  2.3388E-01   1.5143E+01  0.000E+00  0.000E+00  0.000E+00  1.06269E+03  8.980E-01  1.200E+01  6.000E-02  1.299E+00
   1    7    6     2     4    1.5143E+01  2.3338E-01   1.4910E+01  0.000E+00  0.000E+00  0.000E+00  1.05797E+03  8.897E-01  1.200E+01  6.000E-02  1.297E+00
   1    8    6     2     5    1.4910E+01  2.3289E-01   1.4677E+01  0.000E+00  0.000E+00  0.000E+00  1.05324E+03  8.814E-01  1.200E+01  6.000E-02  1.294E+00
   1    3    5     3     1    2.0000E+00  2.8252E-01   1.7175E+00  0.000E+00  0.000E+00  0.000E+00  1.07555E+03  1.909E+00  9.636E+00  7.227E-02  1.955E+00
   1    3    6     3     2    1.7175E+00  2.4905E-01   1.4684E+00  0.000E+00  0.000E+00  0.000E+00  1.07264E+03  1.727E+00  8.909E+00  6.682E-02  1.864E+00
   1    3    7     3     3    1.4684E+00  1.9718E-01   1.2712E+00  0.000E+00  0.000E+00  0.000E+00  1.06987E+03  1.555E+00  8.218E+00  5.547E-02  1.777E+00
   1    4    8     3     4    1.2712E+00  2.2567E-01   1.0456E+00  0.000E+00  0.000E+00  0.000E+00  1.06682E+03  1.364E+00  7.455E+00  6.709E-02  1.682E+00
   1    5    8     3     5    1.0456E+00  1.5790E-01   8.8768E-01  0.000E+00  0.000E+00  0.000E+00  1.06362E+03  1.164E+00  6.655E+00  4.991E-02  1.582E+00
   1    6    8     3     6    8.8768E-01  5.5980E-02   8.3170E-01  0.000E+00  0.000E+00  0.000E+00  1.06158E+03  1.036E+00  6.145E+00  1.844E-02  1.518E+00
   1    5   10     4     1    1.0000E+01  9.0919E-02   9.9091E+00  0.000E+00  0.000E+00  0.000E+00  1.07836E+03  6.368E-01  1.000E+01  2.500E-02  1.212E+00
   1    5    9     4     2    9.9091E+00  1.8158E-01   9.7275E+00  0.000E+00  0.000E+00  0.000E+00  1.07154E+03  6.315E-01  1.000E+01  5.000E-02  1.211E+00
   1    6    8     4     3    9.7275E+00  1.2689E-01   9.6006E+00  0.000E+00  0.000E+00  0.000E+00  1.06381E+03  6.256E-01  1.000E+01  3.500E-02  1.209E+00
   1    6    8     5     1    1.0432E+01  2.2686E-01   1.0205E+01  0.000E+00  0.000E+00  0.000E+00  1.05868E+03  6.790E-01  1.542E+01  6.166E-02  1.226E+00
   1    7    7     5     2    1.0205E+01  2.7894E-01   9.9265E+00  0.000E+00  0.000E+00  0.000E+00  1.05417E+03  6.732E-01  1.519E+01  7.594E-02  1.224E+00
   1    8    7     5     3    9.9265E+00  1.9221E-01   9.7343E+00  0.000E+00  0.000E+00  0.000E+00  1.04992E+03  6.676E-01  1.497E+01  5.241E-02  1.223E+00
   1    8    6     5     4    9.7343E+00  1.3577E-01   9.5985E+00  0.000E+00  0.000E+00  0.000E+00  1.04691E+03  6.637E-01  1.482E+01  3.706E-02  1.221E+00
   1    9    6     6     1    2.4276E+01  2.5176E-01   2.4024E+01  0.000E+00  0.000E+00  0.000E+00  1.04392E+03  1.196E+00  1.200E+01  6.000E-02  1.399E+00
   1   10    7     6     2    2.4024E+01  2.5131E-01   2.3773E+01  0.000E+00  0.000E+00  0.000E+00  1.03937E+03  1.188E+00  1.200E+01  6.000E-02  1.396E+00
   1   11    7     6     3    2.3773E+01  2.5086E-01   2.3522E+01  0.000E+00  0.000E+00  0.000E+00  1.03482E+03  1.181E+00  1.200E+01  6.000E-02  1.394E+00
   1   12    7     6     4    2.3522E+01  2.5041E-01   2.3271E+01  0.000E+00  0.000E+00  0.000E+00  1.03026E+03  1.173E+00  1.200E+01  6.000E-02  1.391E+00
   1   13    7     6     5    2.3271E+01  1.1967E-02   2.3259E+01  0.000E+00  0.000E+00  0.000E+00  1.02708E+03  1.169E+00  1.200E+01  2.400E-02  1.662E-01
   1   14    9     7     1    1.5000E+02  1.3794E+00   1.4862E+02  0.000E+00  0.000E+00  0.000E+00  1.03987E+03  2.288E+00  5.529E+01  5.593E-01  8.221E-01
   1   13    8     7     2    1.4862E+02  1.9896E+00   1.4663E+02  0.000E+00  0.000E+00  0.000E+00  1.03478E+03  2.279E+00  5.525E+01  6.147E-01  1.079E+00
   1   13    7     7     3    1.4663E+02  1.7354E+00   1.4490E+02  0.000E+00  0.000E+00  0.000E+00  1.02969E+03  2.269E+00  5.521E+01  5.584E-01  1.036E+00
   1   13    6     8     1    1.6815E+02  1.1664E+00   1.6699E+02  0.000E+00  0.000E+00  0.000E+00  1.02481E+03  2.936E+00  4.258E+01  4.339E-01  8.961E-01
   1   13    5     8     2    1.6699E+02  4.0167E-01   1.6659E+02  0.000E+00  0.000E+00  0.000E+00  1.01856E+03  2.931E+00  4.250E+01  4.331E-01  3.091E-01
   1   13    4     8     3    1.6659E+02 -1.6756E+00   1.6826E+02  0.000E+00  0.000E+00  0.000E+00  1.01231E+03  2.935E+00  4.256E+01  4.337E+00 -1.288E-01
   1   13    3     8     4    1.6826E+02 -3.2806E+00   1.7154E+02  0.000E+00  0.000E+00  0.000E+00  1.00608E+03  2.952E+00  4.280E+01  4.361E+00 -2.507E-01
   1   13    2     8     5    1.7154E+02 -2.4834E+00   1.7403E+02  0.000E+00  0.000E+00  0.000E+00  9.99845E+02  2.970E+00  4.307E+01  4.389E+00 -1.886E-01
   1   13    1     8     6    1.7403E+02 -1.9571E+00   1.7598E+02  0.000E+00  0.000E+00  0.000E+00  9.94859E+02  2.985E+00  4.328E+01  2.646E+00 -2.466E-01





UNSATURATED ZONE PACKAGE VOLUMETRIC BUDGET FOR  TIME STEP    30 STRESS PERIOD   47
  ------------------------------------------------------------------------------



     CUMULATIVE VOLUMES      L**3       RATES FOR THIS TIME STEP      L**3/T
     ------------------                 ------------------------

           IN:                                      IN:
           ---                                      ---
        INFILTRATION =  1842772612.9918          INFILTRATION =           0.8475

          OUT:                                     OUT:
          ----                                     ----
              UZF ET =  1690991993.6276                UZF ET =           0.8475
        UZF RECHARGE =   151280208.4357          UZF RECHARGE =           2.4040

            IN - OUT =      500410.9285              IN - OUT =          -2.4040

          STORAGE:                                 STORAGE:
          --------                                 --------
      STORAGE CHANGE =      500418.7732        STORAGE CHANGE =          -2.4040

 PERCENT DISCREPANCY IS DIFFERENCE BETWEEN IN-OUT MINUS CHANGE IN STORAGE
 DIVIDED BY THE AVERAGE OF IN AND OUT TIMES 100

 PERCENT DISCREPANCY =           0.00     PERCENT DISCREPANCY =           0.00






1
  VOLUMETRIC BUDGET FOR AGRICULTURAL FIELDS AT  END OF TIME STEP   30, STRESS PERIOD  47
  ------------------------------------------------------------------------------

     CUMULATIVE VOLUMES      L**3       RATES FOR THIS TIME STEP      L**3/T
     ------------------                 ------------------------

           IN:                                      IN:
           ---                                      ---
               AG WELLS  =  1740171648.0000                 AG WELLS  =           0.0000
      DIVERSION SEGMENTS =           0.0000        DIVERSION SEGMENTS =           0.0000
           GW IRRIGATION =           0.0000             GW IRRIGATION =           0.0000
           SW IRRIGATION =           0.0000             SW IRRIGATION =           0.0000
        SYSTEM LOSSES GW =           0.0000          SYSTEM LOSSES GW =           0.0000
        SYSTEM LOSSES SW =           0.0000          SYSTEM LOSSES SW =           0.0000

                TOTAL IN =  1740171648.0000                  TOTAL IN =           0.0000

          OUT:                                     OUT:
          ----                                     ----
               AG WELLS  =           0.0000                 AG WELLS  =           0.0000
      DIVERSION SEGMENTS =           0.0000        DIVERSION SEGMENTS =           0.0000
           GW IRRIGATION =  1740171648.0000             GW IRRIGATION =           0.0000
           SW IRRIGATION =           0.0000             SW IRRIGATION =           0.0000
        SYSTEM LOSSES GW =           0.0000          SYSTEM LOSSES GW =           0.0000
        SYSTEM LOSSES SW =           0.0000          SYSTEM LOSSES SW =           0.0000

               TOTAL OUT =  1740171648.0000                 TOTAL OUT =           0.0000

                IN - OUT =           0.0000                  IN - OUT =           0.0000

     PERCENT DISCREPANCY =           0.00         PERCENT DISCREPANCY =           0.00



1
  VOLUMETRIC BUDGET FOR ENTIRE MODEL AT END OF TIME STEP   30, STRESS PERIOD  47
  ------------------------------------------------------------------------------

     CUMULATIVE VOLUMES      L**3       RATES FOR THIS TIME STEP      L**3/T
     ------------------                 ------------------------

           IN:                                      IN:
           ---                                      ---
             STORAGE     =  2251713536.0000               STORAGE     =          11.5580
       CONSTANT HEAD     =           0.0000         CONSTANT HEAD     =           0.0000
     HEAD DEP BOUNDS     =    34664340.0000       HEAD DEP BOUNDS     =           0.2887
      STREAM LEAKAGE     =  1484125312.0000        STREAM LEAKAGE     =          12.4131
        UZF RECHARGE     =   151280352.0000          UZF RECHARGE     =           2.4040
               GW ET     =           0.0000                 GW ET     =           0.0000
     SURFACE LEAKAGE     =           0.0000       SURFACE LEAKAGE     =           0.0000
           AG WELLS      =           0.0000             AG WELLS      =           0.0000

                TOTAL IN =  3921783552.0000                  TOTAL IN =          26.6638

          OUT:                                     OUT:
          ----                                     ----
             STORAGE     =   906468544.0000               STORAGE     =          16.9783
       CONSTANT HEAD     =           0.0000         CONSTANT HEAD     =           0.0000
     HEAD DEP BOUNDS     =    35310504.0000       HEAD DEP BOUNDS     =           0.2888
      STREAM LEAKAGE     =  1222214400.0000        STREAM LEAKAGE     =           9.3968
        UZF RECHARGE     =           0.0000          UZF RECHARGE     =           0.0000
               GW ET     =    17607600.0000                 GW ET     =           0.0000
     SURFACE LEAKAGE     =           0.0000       SURFACE LEAKAGE     =           0.0000
           AG WELLS      =  1740171648.0000             AG WELLS      =           0.0000

               TOTAL OUT =  3921773056.0000                 TOTAL OUT =          26.6638

                IN - OUT =       10496.0000                  IN - OUT =       2.2888E-05

     PERCENT DISCREPANCY =           0.00         PERCENT DISCREPANCY =           0.00






         TIME SUMMARY AT END OF TIME STEP   30 IN STRESS PERIOD   47
                    SECONDS     MINUTES      HOURS       DAYS        YEARS
                    -----------------------------------------------------------
   TIME STEP LENGTH  87667.      1461.1      24.352      1.0147     2.77799E-03
 STRESS PERIOD TIME 2.63000E+06  43833.      730.56      30.440     8.33397E-02
         TOTAL TIME 1.21065E+08 2.01775E+06  33629.      1401.2      3.8363    
1
1
                            STRESS PERIOD NO.   48, LENGTH =   2630000.    
                            -----------------------------------------------

                              NUMBER OF TIME STEPS =    30

                               MULTIPLIER FOR DELT =     1.000

                            INITIAL TIME STEP SIZE =   87666.66    

 REUSING NON-PARAMETER GHB CELLS FROM LAST STRESS PERIOD

      2 GHB CELLS

 REUSING STREAM SEGMENT DATA FROM LAST STRESS PERIOD



            AREAL INFILTRATION RATE
 READING ON UNIT   19 WITH FORMAT: (FREE)              

            1           2           3           4           5           6           7           8           9          10
 ........................................................................................................................
   1   1.0000E-10  2.0000E-10   0.000       0.000       0.000       0.000       0.000       0.000       0.000       0.000    
   2   2.0000E-10  1.0000E-10  2.0000E-10   0.000       0.000      8.0000E-10  8.0000E-10  5.0000E-10   0.000       0.000    
   3    0.000      5.0000E-10  1.0000E-10  1.0000E-10  8.0000E-10  8.0000E-10  5.0000E-10  5.0000E-10   0.000       0.000    
   4   8.0000E-10  5.0000E-10  1.0000E-10  1.0000E-10  1.0000E-10  1.0000E-10  1.0000E-10  1.0000E-10  2.0000E-10   0.000    
   5   8.0000E-10  5.0000E-10  1.0000E-10  1.0000E-10  1.0000E-10  1.0000E-10  1.0000E-10  1.0000E-10  1.0000E-10  1.0000E-10
   6   8.0000E-10  5.0000E-10  5.0000E-10  2.0000E-10  2.0000E-10  1.0000E-10  1.0000E-10  1.0000E-10  1.0000E-10  5.0000E-10
   7   8.0000E-10  5.0000E-10  5.0000E-10  2.0000E-10  2.0000E-10  1.0000E-10  1.0000E-10  2.0000E-10  2.0000E-10   0.000    
   8    0.000      5.0000E-10  5.0000E-10  2.0000E-10  2.0000E-10  1.0000E-10  1.0000E-10  2.0000E-10  5.0000E-10   0.000    
   9    0.000      5.0000E-10  5.0000E-10  2.0000E-10  2.0000E-10  1.0000E-10  1.0000E-10  2.0000E-10  5.0000E-10   0.000    
  10    0.000      5.0000E-10  5.0000E-10  2.0000E-10  2.0000E-10  1.0000E-10  1.0000E-10  2.0000E-10  5.0000E-10  8.0000E-10
  11    0.000      1.0000E-10  1.0000E-10  1.0000E-10  1.0000E-10  1.0000E-10  1.0000E-10  2.0000E-10  5.0000E-10   0.000    
  12   1.0000E-10  1.0000E-10  1.0000E-10  1.0000E-10  1.0000E-10  1.0000E-10  1.0000E-10  1.0000E-10  2.0000E-10   0.000    
  13   1.0000E-10  1.0000E-10  2.0000E-10  2.0000E-10  2.0000E-10  2.0000E-10  2.0000E-10  1.0000E-10  1.0000E-10   0.000    
  14    0.000      2.0000E-10  5.0000E-10  5.0000E-10  5.0000E-10  5.0000E-10  5.0000E-10  2.0000E-10  1.0000E-10   0.000    
  15    0.000       0.000      8.0000E-10  8.0000E-10  8.0000E-10  8.0000E-10   0.000       0.000       0.000       0.000    

                  ET RATE =  5.000000E-10

 USING ET EXTINCTION DEPTH FROM PREVIOUS STRESS PERIOD. CURRENT PERIOD IS:      48

 USING EXTINCTION WATER CONTENT FROM PREVIOUS STRESS PERIOD. CURRENT PERIOD IS:      48

 USING AIR ENTRY PRESSURE FROM PREVIOUS STRESS PERIOD. CURRENT PERIOD IS:      48

 USING ROOT PRESSURE HEAD FROM PREVIOUS STRESS PERIOD. CURRENT PERIOD IS:      48

 USING ROOT ACTIVITY FROM PREVIOUS STRESS PERIOD. CURRENT PERIOD IS:      48

 PROCESSING AG STRESS PERIOD DATA

 READING AG STRESS PERIOD DATA

 READING IRRIGATION WELL

 END PROCESSING AG STRESS PERIOD DATA OPTIONS
 
 SOLVING FOR HEAD 
                                                   Max.-Head-Change                         Max.-Flux-Residual
  Residual-Control   Outer-Iter.   Inner-Iter.     Column Row Layer    Maximum-Head-Change  Column Row Layer    Maximum-Flux-Residual          L2-NORM 
          0                 1           2             4    6     1       0.6552680754E-01       4    6    1         0.3509597492E+01      0.5670299922E+01
          0                 2           2             4    6     1      -0.6370712590E-02       4    6    1        -0.3507812466E+00      0.5667877316E+00
          0                 3           2             4    6     1       0.4335011026E-03       4    6    1         0.2453645404E-01      0.3965117874E-01
          0                 4           1             4    6     1      -0.1722828185E-04       4    6    1        -0.1002306689E-02      0.1620108154E-02

    ------------------------------------------------
       NWT REQUIRED            4 OUTER ITERATIONS 
       AND A TOTAL OF          7 INNER ITERATIONS.
    ------------------------------------------------

 NO OUTPUT CONTROL FOR STRESS PERIOD   48   TIME STEP    1
 
 SOLVING FOR HEAD 
                                                   Max.-Head-Change                         Max.-Flux-Residual
  Residual-Control   Outer-Iter.   Inner-Iter.     Column Row Layer    Maximum-Head-Change  Column Row Layer    Maximum-Flux-Residual          L2-NORM 
          0                 1           2             4    6     1       0.6361335956E-01       4    6    1         0.3404621491E+01      0.5586166697E+01
          0                 2           2             4    6     1      -0.6184675847E-02       4    6    1        -0.3402885889E+00      0.5583784145E+00
          0                 3           2             4    6     1       0.4208419315E-03       4    6    1         0.2380250299E-01      0.3906294452E-01
          0                 4           1             4    6     1      -0.1672516859E-04       4    6    1        -0.9723241133E-03      0.1596084704E-02

    ------------------------------------------------
       NWT REQUIRED            4 OUTER ITERATIONS 
       AND A TOTAL OF          7 INNER ITERATIONS.
    ------------------------------------------------

 NO OUTPUT CONTROL FOR STRESS PERIOD   48   TIME STEP    2
 
 SOLVING FOR HEAD 
                                                   Max.-Head-Change                         Max.-Flux-Residual
  Residual-Control   Outer-Iter.   Inner-Iter.     Column Row Layer    Maximum-Head-Change  Column Row Layer    Maximum-Flux-Residual          L2-NORM 
          0                 1           2             4    7     1       0.4058741060E-01       4    7    1         0.2147885198E+01      0.4495031326E+01
          0                 2           2             4    7     1      -0.3945964086E-02       4    7    1        -0.2146756182E+00      0.4493335836E+00
          0                 3           2             4    7     1       0.2685041010E-03       4    7    1         0.1501602178E-01      0.3143675535E-01
          0                 4           1             4    7     1      -0.1067072379E-04       4    7    1        -0.6133906700E-03      0.1284637970E-02

    ------------------------------------------------
       NWT REQUIRED            4 OUTER ITERATIONS 
       AND A TOTAL OF          7 INNER ITERATIONS.
    ------------------------------------------------

 NO OUTPUT CONTROL FOR STRESS PERIOD   48   TIME STEP    3
 
 SOLVING FOR HEAD 
                                                   Max.-Head-Change                         Max.-Flux-Residual
  Residual-Control   Outer-Iter.   Inner-Iter.     Column Row Layer    Maximum-Head-Change  Column Row Layer    Maximum-Flux-Residual          L2-NORM 
          0                 1           2             4    7     1       0.3986812297E-01       4    7    1         0.2108818037E+01      0.4441522439E+01
          0                 2           2             4    7     1      -0.3876032030E-02       4    7    1        -0.2107708291E+00      0.4439843379E+00
          0                 3           2             4    7     1       0.2637454850E-03       4    7    1         0.1474288701E-01      0.3106247289E-01
          0                 4           1             4    7     1      -0.1048160437E-04       4    7    1        -0.6022330065E-03      0.1269338133E-02

    ------------------------------------------------
       NWT REQUIRED            4 OUTER ITERATIONS 
       AND A TOTAL OF          7 INNER ITERATIONS.
    ------------------------------------------------

 NO OUTPUT CONTROL FOR STRESS PERIOD   48   TIME STEP    4
 
 SOLVING FOR HEAD 
                                                   Max.-Head-Change                         Max.-Flux-Residual
  Residual-Control   Outer-Iter.   Inner-Iter.     Column Row Layer    Maximum-Head-Change  Column Row Layer    Maximum-Flux-Residual          L2-NORM 
          0                 1           2             4    7     1       0.3917923305E-01       4    7    1         0.2071444141E+01      0.4389681348E+01
          0                 2           2             4    7     1      -0.3809055435E-02       4    7    1        -0.2070352873E+00      0.4388018415E+00
          0                 3           2             4    7     1       0.2591879804E-03       4    7    1         0.1448159104E-01      0.3069983679E-01
          0                 4           1             4    7     1      -0.1030047769E-04       4    7    1        -0.5915589816E-03      0.1254498692E-02

    ------------------------------------------------
       NWT REQUIRED            4 OUTER ITERATIONS 
       AND A TOTAL OF          7 INNER ITERATIONS.
    ------------------------------------------------

 NO OUTPUT CONTROL FOR STRESS PERIOD   48   TIME STEP    5
 
 SOLVING FOR HEAD 
                                                   Max.-Head-Change                         Max.-Flux-Residual
  Residual-Control   Outer-Iter.   Inner-Iter.     Column Row Layer    Maximum-Head-Change  Column Row Layer    Maximum-Flux-Residual          L2-NORM 
          0                 1           2             4    7     1       0.3851866780E-01       4    7    1         0.2035646314E+01      0.4339404317E+01
          0                 2           2             4    7     1      -0.3744832744E-02       4    7    1        -0.2034572788E+00      0.4337757408E+00
          0                 3           2             4    7     1       0.2548178717E-03       4    7    1         0.1423131449E-01      0.3034819675E-01
          0                 4           1             4    7     1      -0.1012679895E-04       4    7    1        -0.5813351086E-03      0.1240153957E-02

    ------------------------------------------------
       NWT REQUIRED            4 OUTER ITERATIONS 
       AND A TOTAL OF          7 INNER ITERATIONS.
    ------------------------------------------------

 NO OUTPUT CONTROL FOR STRESS PERIOD   48   TIME STEP    6
 
 SOLVING FOR HEAD 
                                                   Max.-Head-Change                         Max.-Flux-Residual
  Residual-Control   Outer-Iter.   Inner-Iter.     Column Row Layer    Maximum-Head-Change  Column Row Layer    Maximum-Flux-Residual          L2-NORM 
          0                 1           2             4    7     1       0.3788477212E-01       4    7    1         0.2001331599E+01      0.4290566812E+01
          0                 2           2             4    7     1      -0.3683203036E-02       4    7    1        -0.2000275122E+00      0.4288935835E+00
          0                 3           2             4    7     1       0.2506242090E-03       4    7    1         0.1399140741E-01      0.3000659786E-01
          0                 4           1             4    7     1      -0.9960133331E-05       4    7    1        -0.5715348718E-03      0.1227399928E-02

    ------------------------------------------------
       NWT REQUIRED            4 OUTER ITERATIONS 
       AND A TOTAL OF          7 INNER ITERATIONS.
    ------------------------------------------------

 NO OUTPUT CONTROL FOR STRESS PERIOD   48   TIME STEP    7
 
 SOLVING FOR HEAD 
                                                   Max.-Head-Change                         Max.-Flux-Residual
  Residual-Control   Outer-Iter.   Inner-Iter.     Column Row Layer    Maximum-Head-Change  Column Row Layer    Maximum-Flux-Residual          L2-NORM 
          0                 1           2             4    7     1       0.3727563526E-01       4    7    1         0.1968392392E+01      0.4243078111E+01
          0                 2           2             4    7     1      -0.3623980536E-02       4    7    1        -0.1967352319E+00      0.4241462684E+00
          0                 3           2             4    7     1       0.2465943496E-03       4    7    1         0.1376111747E-01      0.2967443408E-01
          0                 4           1             4    7     1      -0.9799977023E-05       4    7    1        -0.5621274681E-03      0.1212609919E-02

    ------------------------------------------------
       NWT REQUIRED            4 OUTER ITERATIONS 
       AND A TOTAL OF          7 INNER ITERATIONS.
    ------------------------------------------------

 NO OUTPUT CONTROL FOR STRESS PERIOD   48   TIME STEP    8
 
 SOLVING FOR HEAD 
                                                   Max.-Head-Change                         Max.-Flux-Residual
  Residual-Control   Outer-Iter.   Inner-Iter.     Column Row Layer    Maximum-Head-Change  Column Row Layer    Maximum-Flux-Residual          L2-NORM 
          0                 1           2             4    7     1       0.3668987912E-01       4    7    1         0.1936751418E+01      0.4196843925E+01
          0                 2           2             4    7     1      -0.3567031255E-02       4    7    1        -0.1935727139E+00      0.4195244160E+00
          0                 3           2             4    7     1       0.2427191770E-03       4    7    1         0.1353990437E-01      0.2935105909E-01
          0                 4           1             4    7     1      -0.9645968990E-05       4    7    1        -0.5530908902E-03      0.1199396903E-02

    ------------------------------------------------
       NWT REQUIRED            4 OUTER ITERATIONS 
       AND A TOTAL OF          7 INNER ITERATIONS.
    ------------------------------------------------

 NO OUTPUT CONTROL FOR STRESS PERIOD   48   TIME STEP    9
 
 SOLVING FOR HEAD 
                                                   Max.-Head-Change                         Max.-Flux-Residual
  Residual-Control   Outer-Iter.   Inner-Iter.     Column Row Layer    Maximum-Head-Change  Column Row Layer    Maximum-Flux-Residual          L2-NORM 
          0                 1           2             4    7     1       0.3612571877E-01       4    7    1         0.1906308163E+01      0.4151798063E+01
          0                 2           2             4    7     1      -0.3512181648E-02       4    7    1        -0.1905299117E+00      0.4150213675E+00
          0                 3           2             4    7     1       0.2389868809E-03       4    7    1         0.1332706531E-01      0.2903599680E-01
          0                 4           1             4    7     1      -0.9497638935E-05       4    7    1        -0.5443963923E-03      0.1186518398E-02

    ------------------------------------------------
       NWT REQUIRED            4 OUTER ITERATIONS 
       AND A TOTAL OF          7 INNER ITERATIONS.
    ------------------------------------------------

 NO OUTPUT CONTROL FOR STRESS PERIOD   48   TIME STEP   10
 
 SOLVING FOR HEAD 
                                                   Max.-Head-Change                         Max.-Flux-Residual
  Residual-Control   Outer-Iter.   Inner-Iter.     Column Row Layer    Maximum-Head-Change  Column Row Layer    Maximum-Flux-Residual          L2-NORM 
          0                 1           2             4    7     1       0.3558202292E-01       4    7    1         0.1876999144E+01      0.4107853350E+01
          0                 2           2             4    7     1      -0.3459321724E-02       4    7    1        -0.1876004796E+00      0.4106284314E+00
          0                 3           2             4    7     1       0.2353899769E-03       4    7    1         0.1312215644E-01      0.2872864436E-01
          0                 4           1             4    7     1      -0.9354690405E-05       4    7    1        -0.5360258565E-03      0.1173956401E-02

    ------------------------------------------------
       NWT REQUIRED            4 OUTER ITERATIONS 
       AND A TOTAL OF          7 INNER ITERATIONS.
    ------------------------------------------------

 NO OUTPUT CONTROL FOR STRESS PERIOD   48   TIME STEP   11
 
 SOLVING FOR HEAD 
                                                   Max.-Head-Change                         Max.-Flux-Residual
  Residual-Control   Outer-Iter.   Inner-Iter.     Column Row Layer    Maximum-Head-Change  Column Row Layer    Maximum-Flux-Residual          L2-NORM 
          0                 1           2             4    7     1       0.3505748963E-01       4    7    1         0.1848751174E+01      0.4064963525E+01
          0                 2           2             4    7     1      -0.3408324898E-02       4    7    1        -0.1847771024E+00      0.4063409711E+00
          0                 3           2             4    7     1       0.2319198519E-03       4    7    1         0.1292466608E-01      0.2842867280E-01
          0                 4           1             4    7     1      -0.9216779973E-05       4    7    1        -0.5279583811E-03      0.1161988005E-02

    ------------------------------------------------
       NWT REQUIRED            4 OUTER ITERATIONS 
       AND A TOTAL OF          7 INNER ITERATIONS.
    ------------------------------------------------

 NO OUTPUT CONTROL FOR STRESS PERIOD   48   TIME STEP   12
 
 SOLVING FOR HEAD 
                                                   Max.-Head-Change                         Max.-Flux-Residual
  Residual-Control   Outer-Iter.   Inner-Iter.     Column Row Layer    Maximum-Head-Change  Column Row Layer    Maximum-Flux-Residual          L2-NORM 
          0                 1           2             4    7     1       0.3455091564E-01       4    7    1         0.1821496749E+01      0.4023052437E+01
          0                 2           2             4    7     1      -0.3359074183E-02       4    7    1        -0.1820530329E+00      0.4021513502E+00
          0                 3           2             4    7     1       0.2285685448E-03       4    7    1         0.1273412225E-01      0.2813554238E-01
          0                 4           1             4    7     1      -0.9083592076E-05       4    7    1        -0.5201746847E-03      0.1149723700E-02

    ------------------------------------------------
       NWT REQUIRED            4 OUTER ITERATIONS 
       AND A TOTAL OF          7 INNER ITERATIONS.
    ------------------------------------------------

 NO OUTPUT CONTROL FOR STRESS PERIOD   48   TIME STEP   13
 
 SOLVING FOR HEAD 
                                                   Max.-Head-Change                         Max.-Flux-Residual
  Residual-Control   Outer-Iter.   Inner-Iter.     Column Row Layer    Maximum-Head-Change  Column Row Layer    Maximum-Flux-Residual          L2-NORM 
          0                 1           2             4    7     1       0.3406131811E-01       4    7    1         0.1795180751E+01      0.3982080546E+01
          0                 2           2             4    7     1      -0.3311474018E-02       4    7    1        -0.1794227616E+00      0.3980556472E+00
          0                 3           2             4    7     1       0.2253295527E-03       4    7    1         0.1255013954E-01      0.2784898786E-01
          0                 4           1             4    7     1      -0.8954868136E-05       4    7    1        -0.5126590195E-03      0.1138013945E-02

    ------------------------------------------------
       NWT REQUIRED            4 OUTER ITERATIONS 
       AND A TOTAL OF          7 INNER ITERATIONS.
    ------------------------------------------------

 NO OUTPUT CONTROL FOR STRESS PERIOD   48   TIME STEP   14
 
 SOLVING FOR HEAD 
                                                   Max.-Head-Change                         Max.-Flux-Residual
  Residual-Control   Outer-Iter.   Inner-Iter.     Column Row Layer    Maximum-Head-Change  Column Row Layer    Maximum-Flux-Residual          L2-NORM 
          0                 1           2             4    7     1       0.3358753209E-01       4    7    1         0.1769737685E+01      0.3941997209E+01
          0                 2           2             4    7     1      -0.3265411138E-02       4    7    1        -0.1768797421E+00      0.3940487858E+00
          0                 3           2             4    7     1       0.2221951680E-03       4    7    1         0.1237226005E-01      0.2756865627E-01
          0                 4           1             4    7     1      -0.8830301224E-05       4    7    1        -0.5053926684E-03      0.1126557410E-02

    ------------------------------------------------
       NWT REQUIRED            4 OUTER ITERATIONS 
       AND A TOTAL OF          7 INNER ITERATIONS.
    ------------------------------------------------

 NO OUTPUT CONTROL FOR STRESS PERIOD   48   TIME STEP   15
 
 SOLVING FOR HEAD 
                                                   Max.-Head-Change                         Max.-Flux-Residual
  Residual-Control   Outer-Iter.   Inner-Iter.     Column Row Layer    Maximum-Head-Change  Column Row Layer    Maximum-Flux-Residual          L2-NORM 
          0                 1           2             4    7     1       0.3312886772E-01       4    7    1         0.1745128955E+01      0.3902760913E+01
          0                 2           2             4    7     1      -0.3220818472E-02       4    7    1        -0.1744201167E+00      0.3901266362E+00
          0                 3           2             4    7     1       0.2191608267E-03       4    7    1         0.1220021390E-01      0.2729424814E-01
          0                 4           1             4    7     1      -0.8709710704E-05       4    7    1        -0.4983646231E-03      0.1115336385E-02

    ------------------------------------------------
       NWT REQUIRED            4 OUTER ITERATIONS 
       AND A TOTAL OF          7 INNER ITERATIONS.
    ------------------------------------------------

 NO OUTPUT CONTROL FOR STRESS PERIOD   48   TIME STEP   16
 
 SOLVING FOR HEAD 
                                                   Max.-Head-Change                         Max.-Flux-Residual
  Residual-Control   Outer-Iter.   Inner-Iter.     Column Row Layer    Maximum-Head-Change  Column Row Layer    Maximum-Flux-Residual          L2-NORM 
          0                 1           2             4    7     1       0.3268416421E-01       4    7    1         0.1721289718E+01      0.3864322680E+01
          0                 2           2             4    7     1      -0.3177583157E-02       4    7    1        -0.1720374039E+00      0.3862842750E+00
          0                 3           2             4    7     1       0.2162188491E-03       4    7    1         0.1203354776E-01      0.2702542738E-01
          0                 4           1             4    7     1      -0.8592790797E-05       4    7    1        -0.4915563461E-03      0.1104346053E-02

    ------------------------------------------------
       NWT REQUIRED            4 OUTER ITERATIONS 
       AND A TOTAL OF          7 INNER ITERATIONS.
    ------------------------------------------------

 NO OUTPUT CONTROL FOR STRESS PERIOD   48   TIME STEP   17
 
 SOLVING FOR HEAD 
                                                   Max.-Head-Change                         Max.-Flux-Residual
  Residual-Control   Outer-Iter.   Inner-Iter.     Column Row Layer    Maximum-Head-Change  Column Row Layer    Maximum-Flux-Residual          L2-NORM 
          0                 1           2             4    7     1       0.3225287168E-01       4    7    1         0.1698188866E+01      0.3826659695E+01
          0                 2           2             4    7     1      -0.3135651732E-02       4    7    1        -0.1697284944E+00      0.3825194199E+00
          0                 3           2             4    7     1       0.2133655975E-03       4    7    1         0.1187204411E-01      0.2676204035E-01
          0                 4           1             4    7     1      -0.8479397364E-05       4    7    1        -0.4849589798E-03      0.1093593187E-02

    ------------------------------------------------
       NWT REQUIRED            4 OUTER ITERATIONS 
       AND A TOTAL OF          7 INNER ITERATIONS.
    ------------------------------------------------

 NO OUTPUT CONTROL FOR STRESS PERIOD   48   TIME STEP   18
 
 SOLVING FOR HEAD 
                                                   Max.-Head-Change                         Max.-Flux-Residual
  Residual-Control   Outer-Iter.   Inner-Iter.     Column Row Layer    Maximum-Head-Change  Column Row Layer    Maximum-Flux-Residual          L2-NORM 
          0                 1           2             4    7     1       0.3183408875E-01       4    7    1         0.1675776079E+01      0.3789733879E+01
          0                 2           2             4    7     1      -0.3094936558E-02       4    7    1        -0.1674883586E+00      0.3788282626E+00
          0                 3           2             4    7     1       0.2105951077E-03       4    7    1         0.1171535111E-01      0.2650379788E-01
          0                 4           1             4    7     1      -0.8369293011E-05       4    7    1        -0.4785581273E-03      0.1083159865E-02

    ------------------------------------------------
       NWT REQUIRED            4 OUTER ITERATIONS 
       AND A TOTAL OF          7 INNER ITERATIONS.
    ------------------------------------------------

 NO OUTPUT CONTROL FOR STRESS PERIOD   48   TIME STEP   19
 
 SOLVING FOR HEAD 
                                                   Max.-Head-Change                         Max.-Flux-Residual
  Residual-Control   Outer-Iter.   Inner-Iter.     Column Row Layer    Maximum-Head-Change  Column Row Layer    Maximum-Flux-Residual          L2-NORM 
          0                 1           2             4    7     1       0.3142724313E-01       4    7    1         0.1654019164E+01      0.3753518188E+01
          0                 2           2             4    7     1      -0.3055381991E-02       4    7    1        -0.1653137785E+00      0.3752081107E+00
          0                 3           2             4    7     1       0.2079035928E-03       4    7    1         0.1156324366E-01      0.2625053362E-01
          0                 4           1             4    7     1      -0.8262327266E-05       4    7    1        -0.4723445861E-03      0.1072698507E-02

    ------------------------------------------------
       NWT REQUIRED            4 OUTER ITERATIONS 
       AND A TOTAL OF          7 INNER ITERATIONS.
    ------------------------------------------------

 NO OUTPUT CONTROL FOR STRESS PERIOD   48   TIME STEP   20
 
 SOLVING FOR HEAD 
                                                   Max.-Head-Change                         Max.-Flux-Residual
  Residual-Control   Outer-Iter.   Inner-Iter.     Column Row Layer    Maximum-Head-Change  Column Row Layer    Maximum-Flux-Residual          L2-NORM 
          0                 1           2             4    7     1       0.3103180240E-01       4    7    1         0.1632888448E+01      0.3717974742E+01
          0                 2           2             4    7     1      -0.3016936267E-02       4    7    1        -0.1632017883E+00      0.3716551694E+00
          0                 3           2             4    7     1       0.2052875317E-03       4    7    1         0.1141551434E-01      0.2600195961E-01
          0                 4           1             4    7     1      -0.8158360481E-05       4    7    1        -0.4663099064E-03      0.1062531299E-02

    ------------------------------------------------
       NWT REQUIRED            4 OUTER ITERATIONS 
       AND A TOTAL OF          7 INNER ITERATIONS.
    ------------------------------------------------

 NO OUTPUT CONTROL FOR STRESS PERIOD   48   TIME STEP   21
 
 SOLVING FOR HEAD 
                                                   Max.-Head-Change                         Max.-Flux-Residual
  Residual-Control   Outer-Iter.   Inner-Iter.     Column Row Layer    Maximum-Head-Change  Column Row Layer    Maximum-Flux-Residual          L2-NORM 
          0                 1           2             4    7     1       0.3064688053E-01       4    7    1         0.1612334513E+01      0.3683086654E+01
          0                 2           2             4    7     1      -0.2979513241E-02       4    7    1        -0.1611474484E+00      0.3681677419E+00
          0                 3           2             4    7     1       0.2027410616E-03       4    7    1         0.1127181761E-01      0.2575796662E-01
          0                 4           1             4    7     1      -0.8057159061E-05       4    7    1        -0.4604399571E-03      0.1052569810E-02

    ------------------------------------------------
       NWT REQUIRED            4 OUTER ITERATIONS 
       AND A TOTAL OF          7 INNER ITERATIONS.
    ------------------------------------------------

 NO OUTPUT CONTROL FOR STRESS PERIOD   48   TIME STEP   22
 
 SOLVING FOR HEAD 
                                                   Max.-Head-Change                         Max.-Flux-Residual
  Residual-Control   Outer-Iter.   Inner-Iter.     Column Row Layer    Maximum-Head-Change  Column Row Layer    Maximum-Flux-Residual          L2-NORM 
          0                 1           2             4    7     1       0.3027204497E-01       4    7    1         0.1592333233E+01      0.3648821826E+01
          0                 2           2             4    7     1      -0.2943070857E-02       4    7    1        -0.1591483474E+00      0.3647426394E+00
          0                 3           2             4    7     1       0.2002613212E-03       4    7    1         0.1113198480E-01      0.2551835527E-01
          0                 4           1             4    7     1      -0.7958610065E-05       4    7    1        -0.4547278613E-03      0.1042769112E-02

    ------------------------------------------------
       NWT REQUIRED            4 OUTER ITERATIONS 
       AND A TOTAL OF          7 INNER ITERATIONS.
    ------------------------------------------------

 NO OUTPUT CONTROL FOR STRESS PERIOD   48   TIME STEP   23
 
 SOLVING FOR HEAD 
                                                   Max.-Head-Change                         Max.-Flux-Residual
  Residual-Control   Outer-Iter.   Inner-Iter.     Column Row Layer    Maximum-Head-Change  Column Row Layer    Maximum-Flux-Residual          L2-NORM 
          0                 1           2             4    7     1       0.2990690228E-01       4    7    1         0.1572862183E+01      0.3615171485E+01
          0                 2           2             4    7     1      -0.2907570860E-02       4    7    1        -0.1572022437E+00      0.3613789774E+00
          0                 3           2             4    7     1       0.1978457067E-03       4    7    1         0.1099585907E-01      0.2528303112E-01
          0                 4           1             4    7     1      -0.7862609649E-05       4    7    1        -0.4491672005E-03      0.1033446293E-02

    ------------------------------------------------
       NWT REQUIRED            4 OUTER ITERATIONS 
       AND A TOTAL OF          7 INNER ITERATIONS.
    ------------------------------------------------

 NO OUTPUT CONTROL FOR STRESS PERIOD   48   TIME STEP   24
 
 SOLVING FOR HEAD 
                                                   Max.-Head-Change                         Max.-Flux-Residual
  Residual-Control   Outer-Iter.   Inner-Iter.     Column Row Layer    Maximum-Head-Change  Column Row Layer    Maximum-Flux-Residual          L2-NORM 
          0                 1           2             4    7     1       0.2955094819E-01       4    7    1         0.1553893691E+01      0.3582104986E+01
          0                 2           2             4    7     1      -0.2872964224E-02       4    7    1        -0.1553063715E+00      0.3580736707E+00
          0                 3           2             4    7     1       0.1954908823E-03       4    7    1         0.1086324700E-01      0.2505180046E-01
          0                 4           1             4    7     1      -0.7769024725E-05       4    7    1        -0.4437500593E-03      0.1023718701E-02

    ------------------------------------------------
       NWT REQUIRED            4 OUTER ITERATIONS 
       AND A TOTAL OF          7 INNER ITERATIONS.
    ------------------------------------------------

 NO OUTPUT CONTROL FOR STRESS PERIOD   48   TIME STEP   25
 
 SOLVING FOR HEAD 
                                                   Max.-Head-Change                         Max.-Flux-Residual
  Residual-Control   Outer-Iter.   Inner-Iter.     Column Row Layer    Maximum-Head-Change  Column Row Layer    Maximum-Flux-Residual          L2-NORM 
          0                 1           2             4    7     1       0.2920358645E-01       4    7    1         0.1535394339E+01      0.3549610155E+01
          0                 2           2             4    7     1      -0.2839192976E-02       4    7    1        -0.1534573904E+00      0.3548255226E+00
          0                 3           2             4    7     1       0.1931929035E-03       4    7    1         0.1073391491E-01      0.2482444912E-01
          0                 4           1             4    7     1      -0.7677699641E-05       4    7    1        -0.4384669362E-03      0.1014361233E-02

    ------------------------------------------------
       NWT REQUIRED            4 OUTER ITERATIONS 
       AND A TOTAL OF          7 INNER ITERATIONS.
    ------------------------------------------------

 NO OUTPUT CONTROL FOR STRESS PERIOD   48   TIME STEP   26
 
 SOLVING FOR HEAD 
                                                   Max.-Head-Change                         Max.-Flux-Residual
  Residual-Control   Outer-Iter.   Inner-Iter.     Column Row Layer    Maximum-Head-Change  Column Row Layer    Maximum-Flux-Residual          L2-NORM 
          0                 1           2             4    7     1       0.2886452521E-01       4    7    1         0.1517347757E+01      0.3517661796E+01
          0                 2           2             4    7     1      -0.2806228740E-02       4    7    1        -0.1516536644E+00      0.3516320128E+00
          0                 3           2             4    7     1       0.1909498382E-03       4    7    1         0.1060774835E-01      0.2460637292E-01
          0                 4           1             3   13     1       0.7681655656E-05       3   13    1         0.4800318256E-03      0.1114063676E-02

    ------------------------------------------------
       NWT REQUIRED            4 OUTER ITERATIONS 
       AND A TOTAL OF          7 INNER ITERATIONS.
    ------------------------------------------------

 NO OUTPUT CONTROL FOR STRESS PERIOD   48   TIME STEP   27
 
 SOLVING FOR HEAD 
                                                   Max.-Head-Change                         Max.-Flux-Residual
  Residual-Control   Outer-Iter.   Inner-Iter.     Column Row Layer    Maximum-Head-Change  Column Row Layer    Maximum-Flux-Residual          L2-NORM 
          0                 1           2             4    7     1       0.2853335821E-01       4    7    1         0.1499731541E+01      0.3486244872E+01
          0                 2           2             4    7     1      -0.2774032018E-02       4    7    1        -0.1498929540E+00      0.3484916299E+00
          0                 3           2             4    7     1       0.1887590002E-03       4    7    1         0.1048459067E-01      0.2438144090E-01
          0                 4           1             4    7     1      -0.7501489596E-05       4    7    1        -0.4282822022E-03      0.9963207548E-03

    ------------------------------------------------
       NWT REQUIRED            4 OUTER ITERATIONS 
       AND A TOTAL OF          7 INNER ITERATIONS.
    ------------------------------------------------

 NO OUTPUT CONTROL FOR STRESS PERIOD   48   TIME STEP   28
 
 SOLVING FOR HEAD 
                                                   Max.-Head-Change                         Max.-Flux-Residual
  Residual-Control   Outer-Iter.   Inner-Iter.     Column Row Layer    Maximum-Head-Change  Column Row Layer    Maximum-Flux-Residual          L2-NORM 
          0                 1           2             4    7     1       0.2820970944E-01       4    7    1         0.1482524628E+01      0.3455345463E+01
          0                 2           2             4    7     1      -0.2742566251E-02       4    7    1        -0.1481731538E+00      0.3454029920E+00
          0                 3           2             4    7     1       0.1866179004E-03       4    7    1         0.1036429463E-01      0.2416536502E-01
          0                 4           1             4    7     1      -0.7416398326E-05       4    7    1        -0.4233681605E-03      0.9874890379E-03

    ------------------------------------------------
       NWT REQUIRED            4 OUTER ITERATIONS 
       AND A TOTAL OF          7 INNER ITERATIONS.
    ------------------------------------------------

 NO OUTPUT CONTROL FOR STRESS PERIOD   48   TIME STEP   29
 
 SOLVING FOR HEAD 
                                                   Max.-Head-Change                         Max.-Flux-Residual
  Residual-Control   Outer-Iter.   Inner-Iter.     Column Row Layer    Maximum-Head-Change  Column Row Layer    Maximum-Flux-Residual          L2-NORM 
          0                 1           2             4    7     1       0.2789322755E-01       4    7    1         0.1465707520E+01      0.3424951901E+01
          0                 2           2             4    7     1      -0.2711797280E-02       4    7    1        -0.1464923151E+00      0.3423649210E+00
          0                 3           2             4    7     1       0.1845242156E-03       4    7    1         0.1024672389E-01      0.2395282569E-01
          0                 4           1             4    7     1      -0.7333192270E-05       4    7    1        -0.4185654973E-03      0.9788066209E-03

    ------------------------------------------------
       NWT REQUIRED            4 OUTER ITERATIONS 
       AND A TOTAL OF          7 INNER ITERATIONS.
    ------------------------------------------------

 NO OUTPUT CONTROL FOR STRESS PERIOD   48   TIME STEP   30



 STREAM LISTING     PERIOD     48   STEP       30

 LAYER ROW COL. STREAM  RCH.  FLOW INTO     FLOW TO   FLOW OUT OF   OVRLND.     DIRECT     STREAM       STREAM     STREAM     STREAM   STREAMBED  STREAMBED
                SEG.NO.  NO.  STRM. RCH.    AQUIFER    STRM. RCH.    RUNOFF     PRECIP       ET          HEAD       DEPTH      WIDTH   CONDCTNC.   GRADIENT

   1    1    1     1     1    1.9000E+01  2.1427E-01   1.8786E+01  0.000E+00  0.000E+00  0.000E+00  1.09413E+03  1.082E+00  1.166E+01  5.249E-02  1.361E+00
   1    2    2     1     2    1.8786E+01  3.3054E-01   1.8455E+01  0.000E+00  0.000E+00  0.000E+00  1.08914E+03  1.077E+00  1.158E+01  8.107E-02  1.359E+00
   1    3    3     1     3    1.8455E+01  2.8064E-01   1.8175E+01  0.000E+00  0.000E+00  0.000E+00  1.08349E+03  1.072E+00  1.149E+01  6.892E-02  1.357E+00
   1    3    4     1     4    1.8175E+01  2.5740E-01   1.7917E+01  0.000E+00  0.000E+00  0.000E+00  1.07848E+03  1.068E+00  1.140E+01  6.328E-02  1.356E+00
   1    4    5     2     1    1.5917E+01  3.0542E-01   1.5612E+01  0.000E+00  0.000E+00  0.000E+00  1.07285E+03  9.157E-01  1.200E+01  7.800E-02  1.305E+00
   1    5    6     2     2    1.5612E+01  2.3438E-01   1.5377E+01  0.000E+00  0.000E+00  0.000E+00  1.06742E+03  9.063E-01  1.200E+01  6.000E-02  1.302E+00
   1    6    6     2     3    1.5377E+01  2.3388E-01   1.5143E+01  0.000E+00  0.000E+00  0.000E+00  1.06269E+03  8.980E-01  1.200E+01  6.000E-02  1.299E+00
   1    7    6     2     4    1.5143E+01  2.3338E-01   1.4910E+01  0.000E+00  0.000E+00  0.000E+00  1.05797E+03  8.897E-01  1.200E+01  6.000E-02  1.297E+00
   1    8    6     2     5    1.4910E+01  2.3289E-01   1.4677E+01  0.000E+00  0.000E+00  0.000E+00  1.05324E+03  8.814E-01  1.200E+01  6.000E-02  1.294E+00
   1    3    5     3     1    2.0000E+00  2.8252E-01   1.7175E+00  0.000E+00  0.000E+00  0.000E+00  1.07555E+03  1.909E+00  9.636E+00  7.227E-02  1.955E+00
   1    3    6     3     2    1.7175E+00  2.4905E-01   1.4684E+00  0.000E+00  0.000E+00  0.000E+00  1.07264E+03  1.727E+00  8.909E+00  6.682E-02  1.864E+00
   1    3    7     3     3    1.4684E+00  1.9718E-01   1.2712E+00  0.000E+00  0.000E+00  0.000E+00  1.06987E+03  1.555E+00  8.218E+00  5.547E-02  1.777E+00
   1    4    8     3     4    1.2712E+00  2.2567E-01   1.0456E+00  0.000E+00  0.000E+00  0.000E+00  1.06682E+03  1.364E+00  7.455E+00  6.709E-02  1.682E+00
   1    5    8     3     5    1.0456E+00  1.5790E-01   8.8768E-01  0.000E+00  0.000E+00  0.000E+00  1.06362E+03  1.164E+00  6.655E+00  4.991E-02  1.582E+00
   1    6    8     3     6    8.8768E-01  5.5980E-02   8.3170E-01  0.000E+00  0.000E+00  0.000E+00  1.06158E+03  1.036E+00  6.145E+00  1.844E-02  1.518E+00
   1    5   10     4     1    1.0000E+01  9.0919E-02   9.9091E+00  0.000E+00  0.000E+00  0.000E+00  1.07836E+03  6.368E-01  1.000E+01  2.500E-02  1.212E+00
   1    5    9     4     2    9.9091E+00  1.8158E-01   9.7275E+00  0.000E+00  0.000E+00  0.000E+00  1.07154E+03  6.315E-01  1.000E+01  5.000E-02  1.211E+00
   1    6    8     4     3    9.7275E+00  1.2689E-01   9.6006E+00  0.000E+00  0.000E+00  0.000E+00  1.06381E+03  6.256E-01  1.000E+01  3.500E-02  1.209E+00
   1    6    8     5     1    1.0432E+01  2.2686E-01   1.0205E+01  0.000E+00  0.000E+00  0.000E+00  1.05868E+03  6.790E-01  1.542E+01  6.166E-02  1.226E+00
   1    7    7     5     2    1.0205E+01  2.7894E-01   9.9265E+00  0.000E+00  0.000E+00  0.000E+00  1.05417E+03  6.732E-01  1.519E+01  7.594E-02  1.224E+00
   1    8    7     5     3    9.9265E+00  1.9221E-01   9.7343E+00  0.000E+00  0.000E+00  0.000E+00  1.04992E+03  6.676E-01  1.497E+01  5.241E-02  1.223E+00
   1    8    6     5     4    9.7343E+00  1.3577E-01   9.5985E+00  0.000E+00  0.000E+00  0.000E+00  1.04691E+03  6.637E-01  1.482E+01  3.706E-02  1.221E+00
   1    9    6     6     1    2.4276E+01  2.5176E-01   2.4024E+01  0.000E+00  0.000E+00  0.000E+00  1.04392E+03  1.196E+00  1.200E+01  6.000E-02  1.399E+00
   1   10    7     6     2    2.4024E+01  2.5131E-01   2.3773E+01  0.000E+00  0.000E+00  0.000E+00  1.03937E+03  1.188E+00  1.200E+01  6.000E-02  1.396E+00
   1   11    7     6     3    2.3773E+01  2.5086E-01   2.3522E+01  0.000E+00  0.000E+00  0.000E+00  1.03482E+03  1.181E+00  1.200E+01  6.000E-02  1.394E+00
   1   12    7     6     4    2.3522E+01  2.5041E-01   2.3271E+01  0.000E+00  0.000E+00  0.000E+00  1.03026E+03  1.173E+00  1.200E+01  6.000E-02  1.391E+00
   1   13    7     6     5    2.3271E+01  1.2332E-02   2.3259E+01  0.000E+00  0.000E+00  0.000E+00  1.02708E+03  1.169E+00  1.200E+01  2.400E-02  1.713E-01
   1   14    9     7     1    1.5000E+02  1.3812E+00   1.4862E+02  0.000E+00  0.000E+00  0.000E+00  1.03987E+03  2.288E+00  5.529E+01  5.593E-01  8.232E-01
   1   13    8     7     2    1.4862E+02  1.9939E+00   1.4662E+02  0.000E+00  0.000E+00  0.000E+00  1.03478E+03  2.279E+00  5.525E+01  6.147E-01  1.081E+00
   1   13    7     7     3    1.4662E+02  1.7439E+00   1.4488E+02  0.000E+00  0.000E+00  0.000E+00  1.02969E+03  2.269E+00  5.521E+01  5.584E-01  1.041E+00
   1   13    6     8     1    1.6814E+02  1.1764E+00   1.6696E+02  0.000E+00  0.000E+00  0.000E+00  1.02481E+03  2.936E+00  4.257E+01  4.339E-01  9.038E-01
   1   13    5     8     2    1.6696E+02  4.1277E-01   1.6655E+02  0.000E+00  0.000E+00  0.000E+00  1.01856E+03  2.931E+00  4.250E+01  4.331E-01  3.177E-01
   1   13    4     8     3    1.6655E+02 -1.6335E+00   1.6818E+02  0.000E+00  0.000E+00  0.000E+00  1.01231E+03  2.935E+00  4.256E+01  4.337E+00 -1.256E-01
   1   13    3     8     4    1.6818E+02 -3.2629E+00   1.7145E+02  0.000E+00  0.000E+00  0.000E+00  1.00608E+03  2.951E+00  4.279E+01  4.360E+00 -2.494E-01
   1   13    2     8     5    1.7145E+02 -2.4804E+00   1.7393E+02  0.000E+00  0.000E+00  0.000E+00  9.99845E+02  2.970E+00  4.306E+01  4.388E+00 -1.884E-01
   1   13    1     8     6    1.7393E+02 -1.9566E+00   1.7588E+02  0.000E+00  0.000E+00  0.000E+00  9.94859E+02  2.984E+00  4.327E+01  2.645E+00 -2.465E-01





UNSATURATED ZONE PACKAGE VOLUMETRIC BUDGET FOR  TIME STEP    30 STRESS PERIOD   48
  ------------------------------------------------------------------------------



     CUMULATIVE VOLUMES      L**3       RATES FOR THIS TIME STEP      L**3/T
     ------------------                 ------------------------

           IN:                                      IN:
           ---                                      ---
        INFILTRATION =  1845001537.8646          INFILTRATION =           0.8475

          OUT:                                     OUT:
          ----                                     ----
              UZF ET =  1692964493.5703                UZF ET =           0.7500
        UZF RECHARGE =   151702667.7617          UZF RECHARGE =           0.0003

            IN - OUT =      334376.5326              IN - OUT =       9.7158E-02

          STORAGE:                                 STORAGE:
          --------                                 --------
      STORAGE CHANGE =      334384.4044        STORAGE CHANGE =       9.7158E-02

 PERCENT DISCREPANCY IS DIFFERENCE BETWEEN IN-OUT MINUS CHANGE IN STORAGE
 DIVIDED BY THE AVERAGE OF IN AND OUT TIMES 100

 PERCENT DISCREPANCY =           0.00     PERCENT DISCREPANCY =           0.00






1
  VOLUMETRIC BUDGET FOR AGRICULTURAL FIELDS AT  END OF TIME STEP   30, STRESS PERIOD  48
  ------------------------------------------------------------------------------

     CUMULATIVE VOLUMES      L**3       RATES FOR THIS TIME STEP      L**3/T
     ------------------                 ------------------------

           IN:                                      IN:
           ---                                      ---
               AG WELLS  =  1740171648.0000                 AG WELLS  =           0.0000
      DIVERSION SEGMENTS =           0.0000        DIVERSION SEGMENTS =           0.0000
           GW IRRIGATION =           0.0000             GW IRRIGATION =           0.0000
           SW IRRIGATION =           0.0000             SW IRRIGATION =           0.0000
        SYSTEM LOSSES GW =           0.0000          SYSTEM LOSSES GW =           0.0000
        SYSTEM LOSSES SW =           0.0000          SYSTEM LOSSES SW =           0.0000

                TOTAL IN =  1740171648.0000                  TOTAL IN =           0.0000

          OUT:                                     OUT:
          ----                                     ----
               AG WELLS  =           0.0000                 AG WELLS  =           0.0000
      DIVERSION SEGMENTS =           0.0000        DIVERSION SEGMENTS =           0.0000
           GW IRRIGATION =  1740171648.0000             GW IRRIGATION =           0.0000
           SW IRRIGATION =           0.0000             SW IRRIGATION =           0.0000
        SYSTEM LOSSES GW =           0.0000          SYSTEM LOSSES GW =           0.0000
        SYSTEM LOSSES SW =           0.0000          SYSTEM LOSSES SW =           0.0000

               TOTAL OUT =  1740171648.0000                 TOTAL OUT =           0.0000

                IN - OUT =           0.0000                  IN - OUT =           0.0000

     PERCENT DISCREPANCY =           0.00         PERCENT DISCREPANCY =           0.00



1
  VOLUMETRIC BUDGET FOR ENTIRE MODEL AT END OF TIME STEP   30, STRESS PERIOD  48
  ------------------------------------------------------------------------------

     CUMULATIVE VOLUMES      L**3       RATES FOR THIS TIME STEP      L**3/T
     ------------------                 ------------------------

           IN:                                      IN:
           ---                                      ---
             STORAGE     =  2277407232.0000               STORAGE     =           8.4319
       CONSTANT HEAD     =           0.0000         CONSTANT HEAD     =           0.0000
     HEAD DEP BOUNDS     =    35423856.0000       HEAD DEP BOUNDS     =           0.2888
      STREAM LEAKAGE     =  1516819200.0000        STREAM LEAKAGE     =          12.4491
        UZF RECHARGE     =   151702752.0000          UZF RECHARGE     =       3.4249E-04
               GW ET     =           0.0000                 GW ET     =           0.0000
     SURFACE LEAKAGE     =           0.0000       SURFACE LEAKAGE     =           0.0000
           AG WELLS      =           0.0000             AG WELLS      =           0.0000

                TOTAL IN =  3981352960.0000                  TOTAL IN =          21.1702

          OUT:                                     OUT:
          ----                                     ----
             STORAGE     =   940650368.0000               STORAGE     =          11.5480
       CONSTANT HEAD     =           0.0000         CONSTANT HEAD     =           0.0000
     HEAD DEP BOUNDS     =    36069936.0000       HEAD DEP BOUNDS     =           0.2887
      STREAM LEAKAGE     =  1246842624.0000        STREAM LEAKAGE     =           9.3334
        UZF RECHARGE     =           0.0000          UZF RECHARGE     =           0.0000
               GW ET     =    17607600.0000                 GW ET     =           0.0000
     SURFACE LEAKAGE     =           0.0000       SURFACE LEAKAGE     =           0.0000
           AG WELLS      =  1740171648.0000             AG WELLS      =           0.0000

               TOTAL OUT =  3981342208.0000                 TOTAL OUT =          21.1702

                IN - OUT =       10752.0000                  IN - OUT =       1.5259E-05

     PERCENT DISCREPANCY =           0.00         PERCENT DISCREPANCY =           0.00






         TIME SUMMARY AT END OF TIME STEP   30 IN STRESS PERIOD   48
                    SECONDS     MINUTES      HOURS       DAYS        YEARS
                    -----------------------------------------------------------
   TIME STEP LENGTH  87667.      1461.1      24.352      1.0147     2.77799E-03
 STRESS PERIOD TIME 2.63000E+06  43833.      730.56      30.440     8.33397E-02
         TOTAL TIME 1.23695E+08 2.06158E+06  34360.      1431.7      3.9197    
1
1
                            STRESS PERIOD NO.   49, LENGTH =   2630000.    
                            -----------------------------------------------

                              NUMBER OF TIME STEPS =    30

                               MULTIPLIER FOR DELT =     1.000

                            INITIAL TIME STEP SIZE =   87666.66    

 REUSING NON-PARAMETER GHB CELLS FROM LAST STRESS PERIOD

      2 GHB CELLS

 REUSING STREAM SEGMENT DATA FROM LAST STRESS PERIOD



            AREAL INFILTRATION RATE
 READING ON UNIT   19 WITH FORMAT: (FREE)              

            1           2           3           4           5           6           7           8           9          10
 ........................................................................................................................
   1   1.0000E-10  2.0000E-10   0.000       0.000       0.000       0.000       0.000       0.000       0.000       0.000    
   2   2.0000E-10  1.0000E-10  2.0000E-10   0.000       0.000      8.0000E-10  8.0000E-10  5.0000E-10   0.000       0.000    
   3    0.000      5.0000E-10  1.0000E-10  1.0000E-10  8.0000E-10  8.0000E-10  5.0000E-10  5.0000E-10   0.000       0.000    
   4   8.0000E-10  5.0000E-10  1.0000E-10  1.0000E-10  1.0000E-10  1.0000E-10  1.0000E-10  1.0000E-10  2.0000E-10   0.000    
   5   8.0000E-10  5.0000E-10  1.0000E-10  1.0000E-10  1.0000E-10  1.0000E-10  1.0000E-10  1.0000E-10  1.0000E-10  1.0000E-10
   6   8.0000E-10  5.0000E-10  5.0000E-10  2.0000E-10  2.0000E-10  1.0000E-10  1.0000E-10  1.0000E-10  1.0000E-10  5.0000E-10
   7   8.0000E-10  5.0000E-10  5.0000E-10  2.0000E-10  2.0000E-10  1.0000E-10  1.0000E-10  2.0000E-10  2.0000E-10   0.000    
   8    0.000      5.0000E-10  5.0000E-10  2.0000E-10  2.0000E-10  1.0000E-10  1.0000E-10  2.0000E-10  5.0000E-10   0.000    
   9    0.000      5.0000E-10  5.0000E-10  2.0000E-10  2.0000E-10  1.0000E-10  1.0000E-10  2.0000E-10  5.0000E-10   0.000    
  10    0.000      5.0000E-10  5.0000E-10  2.0000E-10  2.0000E-10  1.0000E-10  1.0000E-10  2.0000E-10  5.0000E-10  8.0000E-10
  11    0.000      1.0000E-10  1.0000E-10  1.0000E-10  1.0000E-10  1.0000E-10  1.0000E-10  2.0000E-10  5.0000E-10   0.000    
  12   1.0000E-10  1.0000E-10  1.0000E-10  1.0000E-10  1.0000E-10  1.0000E-10  1.0000E-10  1.0000E-10  2.0000E-10   0.000    
  13   1.0000E-10  1.0000E-10  2.0000E-10  2.0000E-10  2.0000E-10  2.0000E-10  2.0000E-10  1.0000E-10  1.0000E-10   0.000    
  14    0.000      2.0000E-10  5.0000E-10  5.0000E-10  5.0000E-10  5.0000E-10  5.0000E-10  2.0000E-10  1.0000E-10   0.000    
  15    0.000       0.000      8.0000E-10  8.0000E-10  8.0000E-10  8.0000E-10   0.000       0.000       0.000       0.000    

                  ET RATE =  5.000000E-10

 USING ET EXTINCTION DEPTH FROM PREVIOUS STRESS PERIOD. CURRENT PERIOD IS:      49

 USING EXTINCTION WATER CONTENT FROM PREVIOUS STRESS PERIOD. CURRENT PERIOD IS:      49

 USING AIR ENTRY PRESSURE FROM PREVIOUS STRESS PERIOD. CURRENT PERIOD IS:      49

 USING ROOT PRESSURE HEAD FROM PREVIOUS STRESS PERIOD. CURRENT PERIOD IS:      49

 USING ROOT ACTIVITY FROM PREVIOUS STRESS PERIOD. CURRENT PERIOD IS:      49

 PROCESSING AG STRESS PERIOD DATA

 READING AG STRESS PERIOD DATA

 READING IRRIGATION WELL

 END PROCESSING AG STRESS PERIOD DATA OPTIONS
 
 SOLVING FOR HEAD 
                                                   Max.-Head-Change                         Max.-Flux-Residual
  Residual-Control   Outer-Iter.   Inner-Iter.     Column Row Layer    Maximum-Head-Change  Column Row Layer    Maximum-Flux-Residual          L2-NORM 
          0                 1           2             4    7     1       0.2758358771E-01       4    7    1         0.1449262002E+01      0.3395041264E+01
          0                 2           2             4    7     1      -0.2681693288E-02       4    7    1        -0.1448486171E+00      0.3393563874E+00
          0                 3           2             4    7     1       0.1824757800E-03       4    7    1         0.1013175110E-01      0.2374234923E-01
          0                 4           1             4    7     1      -0.7251784623E-05       4    7    1        -0.4138689533E-03      0.9701998902E-03

    ------------------------------------------------
       NWT REQUIRED            4 OUTER ITERATIONS 
       AND A TOTAL OF          7 INNER ITERATIONS.
    ------------------------------------------------

 NO OUTPUT CONTROL FOR STRESS PERIOD   49   TIME STEP    1
 
 SOLVING FOR HEAD 
                                                   Max.-Head-Change                         Max.-Flux-Residual
  Residual-Control   Outer-Iter.   Inner-Iter.     Column Row Layer    Maximum-Head-Change  Column Row Layer    Maximum-Flux-Residual          L2-NORM 
          0                 1           2             4    7     1       0.2728061652E-01       4    7    1         0.1433178521E+01      0.3365621818E+01
          0                 2           2             4    7     1      -0.2652238096E-02       4    7    1        -0.1432411050E+00      0.3364188360E+00
          0                 3           2             4    7     1       0.1804714927E-03       4    7    1         0.1001930945E-01      0.2353683908E-01
          0                 4           1             4    7     1      -0.7172131175E-05       4    7    1        -0.4092757906E-03      0.9618863330E-03

    ------------------------------------------------
       NWT REQUIRED            4 OUTER ITERATIONS 
       AND A TOTAL OF          7 INNER ITERATIONS.
    ------------------------------------------------

 NO OUTPUT CONTROL FOR STRESS PERIOD   49   TIME STEP    2
 
 SOLVING FOR HEAD 
                                                   Max.-Head-Change                         Max.-Flux-Residual
  Residual-Control   Outer-Iter.   Inner-Iter.     Column Row Layer    Maximum-Head-Change  Column Row Layer    Maximum-Flux-Residual          L2-NORM 
          0                 1           2             4    7     1       0.2698402630E-01       4    7    1         0.1417440774E+01      0.3336733015E+01
          0                 2           2             4    7     1      -0.2623403094E-02       4    7    1        -0.1416681491E+00      0.3335468766E+00
          0                 3           2             4    7     1       0.1785094065E-03       4    7    1         0.9909284958E-02      0.2333593219E-01
          0                 4           1             4    7     1      -0.7094155136E-05       4    7    1        -0.4047813622E-03      0.9536028152E-03

    ------------------------------------------------
       NWT REQUIRED            4 OUTER ITERATIONS 
       AND A TOTAL OF          7 INNER ITERATIONS.
    ------------------------------------------------

 NO OUTPUT CONTROL FOR STRESS PERIOD   49   TIME STEP    3
 
 SOLVING FOR HEAD 
                                                   Max.-Head-Change                         Max.-Flux-Residual
  Residual-Control   Outer-Iter.   Inner-Iter.     Column Row Layer    Maximum-Head-Change  Column Row Layer    Maximum-Flux-Residual          L2-NORM 
          0                 1           2             4    7     1       0.2669340726E-01       4    7    1         0.1402026601E+01      0.3308294733E+01
          0                 2           2             4    7     1      -0.2595148614E-02       4    7    1        -0.1401275347E+00      0.3307042703E+00
          0                 3           2             4    7     1       0.1765868230E-03       4    7    1         0.9801522709E-02      0.2313706949E-01
          0                 4           1             4    7     1      -0.7017749092E-05       4    7    1        -0.4003793695E-03      0.9454772517E-03

    ------------------------------------------------
       NWT REQUIRED            4 OUTER ITERATIONS 
       AND A TOTAL OF          7 INNER ITERATIONS.
    ------------------------------------------------

 NO OUTPUT CONTROL FOR STRESS PERIOD   49   TIME STEP    4
 
 SOLVING FOR HEAD 
                                                   Max.-Head-Change                         Max.-Flux-Residual
  Residual-Control   Outer-Iter.   Inner-Iter.     Column Row Layer    Maximum-Head-Change  Column Row Layer    Maximum-Flux-Residual          L2-NORM 
          0                 1           2             4    7     1       0.2640851005E-01       4    7    1         0.1386922024E+01      0.3280295478E+01
          0                 2           2             4    7     1      -0.2567450432E-02       4    7    1        -0.1386178645E+00      0.3279055576E+00
          0                 3           2             4    7     1       0.1747020935E-03       4    7    1         0.9695924964E-02      0.2294127234E-01
          0                 4           1             4    7     1      -0.6942847076E-05       4    7    1        -0.3960657959E-03      0.9374910078E-03

    ------------------------------------------------
       NWT REQUIRED            4 OUTER ITERATIONS 
       AND A TOTAL OF          7 INNER ITERATIONS.
    ------------------------------------------------

 NO OUTPUT CONTROL FOR STRESS PERIOD   49   TIME STEP    5
 
 SOLVING FOR HEAD 
                                                   Max.-Head-Change                         Max.-Flux-Residual
  Residual-Control   Outer-Iter.   Inner-Iter.     Column Row Layer    Maximum-Head-Change  Column Row Layer    Maximum-Flux-Residual          L2-NORM 
          0                 1           2             4    7     1       0.2612937088E-01       4    7    1         0.1372128669E+01      0.3252728586E+01
          0                 2           2             4    7     1      -0.2540312067E-02       4    7    1        -0.1371393011E+00      0.3251500730E+00
          0                 3           2             4    7     1       0.1728554566E-03       4    7    1         0.9592503065E-02      0.2274851977E-01
          0                 4           1             4    7     1      -0.6869459102E-05       4    7    1        -0.3918410871E-03      0.9295964024E-03

    ------------------------------------------------
       NWT REQUIRED            4 OUTER ITERATIONS 
       AND A TOTAL OF          7 INNER ITERATIONS.
    ------------------------------------------------

 NO OUTPUT CONTROL FOR STRESS PERIOD   49   TIME STEP    6
 
 SOLVING FOR HEAD 
                                                   Max.-Head-Change                         Max.-Flux-Residual
  Residual-Control   Outer-Iter.   Inner-Iter.     Column Row Layer    Maximum-Head-Change  Column Row Layer    Maximum-Flux-Residual          L2-NORM 
          0                 1           2             4    7     1       0.2585549137E-01       4    7    1         0.1357619301E+01      0.3225574418E+01
          0                 2           2             4    7     1      -0.2513685065E-02       4    7    1        -0.1356891222E+00      0.3224358699E+00
          0                 3           2             4    7     1       0.1710436169E-03       4    7    1         0.9491066658E-02      0.2255863604E-01
          0                 4           1             4    7     1      -0.6797454156E-05       4    7    1        -0.3876975022E-03      0.9218392371E-03

    ------------------------------------------------
       NWT REQUIRED            4 OUTER ITERATIONS 
       AND A TOTAL OF          7 INNER ITERATIONS.
    ------------------------------------------------

 NO OUTPUT CONTROL FOR STRESS PERIOD   49   TIME STEP    7
 
 SOLVING FOR HEAD 
                                                   Max.-Head-Change                         Max.-Flux-Residual
  Residual-Control   Outer-Iter.   Inner-Iter.     Column Row Layer    Maximum-Head-Change  Column Row Layer    Maximum-Flux-Residual          L2-NORM 
          0                 1           2             4    7     1       0.2558679911E-01       4    7    1         0.1343389914E+01      0.3198828527E+01
          0                 2           2             4    7     1      -0.2487562386E-02       4    7    1        -0.1342669276E+00      0.3197624546E+00
          0                 3           2             4    7     1       0.1692660941E-03       4    7    1         0.9391587690E-02      0.2237160889E-01
          0                 4           1             4    7     1      -0.6726813357E-05       4    7    1        -0.3836338847E-03      0.9141996407E-03

    ------------------------------------------------
       NWT REQUIRED            4 OUTER ITERATIONS 
       AND A TOTAL OF          7 INNER ITERATIONS.
    ------------------------------------------------

 NO OUTPUT CONTROL FOR STRESS PERIOD   49   TIME STEP    8
 
 SOLVING FOR HEAD 
                                                   Max.-Head-Change                         Max.-Flux-Residual
  Residual-Control   Outer-Iter.   Inner-Iter.     Column Row Layer    Maximum-Head-Change  Column Row Layer    Maximum-Flux-Residual          L2-NORM 
          0                 1           2             4    7     1       0.2532309705E-01       4    7    1         0.1329429478E+01      0.3172479328E+01
          0                 2           2             4    7     1      -0.2461924872E-02       4    7    1        -0.1328716144E+00      0.3171287060E+00
          0                 3           2             4    7     1       0.1675215843E-03       4    7    1         0.9293989025E-02      0.2218736438E-01
          0                 4           1             4    7     1      -0.6657483631E-05       4    7    1        -0.3796470507E-03      0.9066750939E-03

    ------------------------------------------------
       NWT REQUIRED            4 OUTER ITERATIONS 
       AND A TOTAL OF          7 INNER ITERATIONS.
    ------------------------------------------------

 NO OUTPUT CONTROL FOR STRESS PERIOD   49   TIME STEP    9
 
 SOLVING FOR HEAD 
                                                   Max.-Head-Change                         Max.-Flux-Residual
  Residual-Control   Outer-Iter.   Inner-Iter.     Column Row Layer    Maximum-Head-Change  Column Row Layer    Maximum-Flux-Residual          L2-NORM 
          0                 1           2             4    7     1       0.2506419972E-01       4    7    1         0.1315727774E+01      0.3146515262E+01
          0                 2           2             4    7     1      -0.2436754490E-02       4    7    1        -0.1315021615E+00      0.3145334522E+00
          0                 3           2             4    7     1       0.1658088612E-03       4    7    1         0.9198199241E-02      0.2200580709E-01
          0                 4           1             4    7     1      -0.6589417891E-05       4    7    1        -0.3757341362E-03      0.8992545307E-03

    ------------------------------------------------
       NWT REQUIRED            4 OUTER ITERATIONS 
       AND A TOTAL OF          7 INNER ITERATIONS.
    ------------------------------------------------

 NO OUTPUT CONTROL FOR STRESS PERIOD   49   TIME STEP   10
 
 SOLVING FOR HEAD 
                                                   Max.-Head-Change                         Max.-Flux-Residual
  Residual-Control   Outer-Iter.   Inner-Iter.     Column Row Layer    Maximum-Head-Change  Column Row Layer    Maximum-Flux-Residual          L2-NORM 
          0                 1           2             4    7     1       0.2481006270E-01       4    7    1         0.1302282466E+01      0.3120935866E+01
          0                 2           2             4    7     1      -0.2412046920E-02       4    7    1        -0.1301583355E+00      0.3119766755E+00
          0                 3           2             4    7     1       0.1641276308E-03       4    7    1         0.9104202028E-02      0.2182695860E-01
          0                 4           1             4    7     1      -0.6522603819E-05       4    7    1        -0.3718944422E-03      0.8919468552E-03

    ------------------------------------------------
       NWT REQUIRED            4 OUTER ITERATIONS 
       AND A TOTAL OF          7 INNER ITERATIONS.
    ------------------------------------------------

 NO OUTPUT CONTROL FOR STRESS PERIOD   49   TIME STEP   11
 
 SOLVING FOR HEAD 
                                                   Max.-Head-Change                         Max.-Flux-Residual
  Residual-Control   Outer-Iter.   Inner-Iter.     Column Row Layer    Maximum-Head-Change  Column Row Layer    Maximum-Flux-Residual          L2-NORM 
          0                 1           2             4    7     1       0.2456024947E-01       4    7    1         0.1289069410E+01      0.3095726043E+01
          0                 2           2             4    7     1      -0.2387759722E-02       4    7    1        -0.1288377229E+00      0.3094568156E+00
          0                 3           2             4    7     1       0.1624750045E-03       4    7    1         0.9011828536E-02      0.2165067702E-01
          0                 4           1             4    7     1      -0.6456926286E-05       4    7    1        -0.3681210696E-03      0.8847427206E-03

    ------------------------------------------------
       NWT REQUIRED            4 OUTER ITERATIONS 
       AND A TOTAL OF          7 INNER ITERATIONS.
    ------------------------------------------------

 NO OUTPUT CONTROL FOR STRESS PERIOD   49   TIME STEP   12
 
 SOLVING FOR HEAD 
                                                   Max.-Head-Change                         Max.-Flux-Residual
  Residual-Control   Outer-Iter.   Inner-Iter.     Column Row Layer    Maximum-Head-Change  Column Row Layer    Maximum-Flux-Residual          L2-NORM 
          0                 1           2             4    7     1       0.2431487573E-01       4    7    1         0.1276095096E+01      0.3070876885E+01
          0                 2           2             4    7     1      -0.2363904147E-02       4    7    1        -0.1275409725E+00      0.3069730114E+00
          0                 3           2             4    7     1       0.1608517480E-03       4    7    1         0.8921124145E-02      0.2147691776E-01
          0                 4           1             4    7     1      -0.6392415801E-05       4    7    1        -0.3644158694E-03      0.8776472232E-03

    ------------------------------------------------
       NWT REQUIRED            4 OUTER ITERATIONS 
       AND A TOTAL OF          7 INNER ITERATIONS.
    ------------------------------------------------

 NO OUTPUT CONTROL FOR STRESS PERIOD   49   TIME STEP   13
 
 SOLVING FOR HEAD 
                                                   Max.-Head-Change                         Max.-Flux-Residual
  Residual-Control   Outer-Iter.   Inner-Iter.     Column Row Layer    Maximum-Head-Change  Column Row Layer    Maximum-Flux-Residual          L2-NORM 
          0                 1           2             4    7     1       0.2407365838E-01       4    7    1         0.1263343681E+01      0.3046394100E+01
          0                 2           2             4    7     1      -0.2340452669E-02       4    7    1        -0.1262665008E+00      0.3045258445E+00
          0                 3           2             4    7     1       0.1592559892E-03       4    7    1         0.8831978141E-02      0.2130572786E-01
          0                 4           1             4    7     1      -0.6328998223E-05       4    7    1        -0.3607743449E-03      0.8706497659E-03

    ------------------------------------------------
       NWT REQUIRED            4 OUTER ITERATIONS 
       AND A TOTAL OF          7 INNER ITERATIONS.
    ------------------------------------------------

 NO OUTPUT CONTROL FOR STRESS PERIOD   49   TIME STEP   14
 
 SOLVING FOR HEAD 
                                                   Max.-Head-Change                         Max.-Flux-Residual
  Residual-Control   Outer-Iter.   Inner-Iter.     Column Row Layer    Maximum-Head-Change  Column Row Layer    Maximum-Flux-Residual          L2-NORM 
          0                 1           2             4    7     1       0.2383658960E-01       4    7    1         0.1250815049E+01      0.3022251904E+01
          0                 2           2             4    7     1      -0.2317404526E-02       4    7    1        -0.1250142960E+00      0.3021127157E+00
          0                 3           2             4    7     1       0.1576876758E-03       4    7    1         0.8744389659E-02      0.2113691259E-01
          0                 4           1             4    7     1      -0.6266671479E-05       4    7    1        -0.3571964553E-03      0.8637495351E-03

    ------------------------------------------------
       NWT REQUIRED            4 OUTER ITERATIONS 
       AND A TOTAL OF          7 INNER ITERATIONS.
    ------------------------------------------------

 NO OUTPUT CONTROL FOR STRESS PERIOD   49   TIME STEP   15
 
 SOLVING FOR HEAD 
                                                   Max.-Head-Change                         Max.-Flux-Residual
  Residual-Control   Outer-Iter.   Inner-Iter.     Column Row Layer    Maximum-Head-Change  Column Row Layer    Maximum-Flux-Residual          L2-NORM 
          0                 1           2             4    7     1       0.2360340226E-01       4    7    1         0.1238494229E+01      0.2998451786E+01
          0                 2           2             4    7     1      -0.2294732291E-02       4    7    1        -0.1237828620E+00      0.2997094783E+00
          0                 3           2             4    7     1       0.1561449407E-03       4    7    1         0.8658254040E-02      0.2096880789E-01
          0                 4           1             4    7     1      -0.6205361081E-05       4    7    1        -0.3536778920E-03      0.8568940573E-03

    ------------------------------------------------
       NWT REQUIRED            4 OUTER ITERATIONS 
       AND A TOTAL OF          7 INNER ITERATIONS.
    ------------------------------------------------

 NO OUTPUT CONTROL FOR STRESS PERIOD   49   TIME STEP   16
 
 SOLVING FOR HEAD 
                                                   Max.-Head-Change                         Max.-Flux-Residual
  Residual-Control   Outer-Iter.   Inner-Iter.     Column Row Layer    Maximum-Head-Change  Column Row Layer    Maximum-Flux-Residual          L2-NORM 
          0                 1           2             4    7     1       0.2337397745E-01       4    7    1         0.1226374733E+01      0.2975009648E+01
          0                 2           2             4    7     1      -0.2272428774E-02       4    7    1        -0.1225715501E+00      0.2973906647E+00
          0                 3           2             4    7     1       0.1546272949E-03       4    7    1         0.8573525911E-02      0.2080657807E-01
          0                 4           1             4    7     1      -0.6145048379E-05       4    7    1        -0.3502168397E-03      0.8502589860E-03

    ------------------------------------------------
       NWT REQUIRED            4 OUTER ITERATIONS 
       AND A TOTAL OF          7 INNER ITERATIONS.
    ------------------------------------------------

 NO OUTPUT CONTROL FOR STRESS PERIOD   49   TIME STEP   17
 
 SOLVING FOR HEAD 
                                                   Max.-Head-Change                         Max.-Flux-Residual
  Residual-Control   Outer-Iter.   Inner-Iter.     Column Row Layer    Maximum-Head-Change  Column Row Layer    Maximum-Flux-Residual          L2-NORM 
          0                 1           2             4    7     1       0.2314833021E-01       4    7    1         0.1214457443E+01      0.2951880150E+01
          0                 2           2             4    7     1      -0.2250491105E-02       4    7    1        -0.1213804486E+00      0.2950787857E+00
          0                 3           2             4    7     1       0.1531345439E-03       4    7    1         0.8490211479E-02      0.2064484419E-01
          0                 4           1             4    7     1      -0.6085724393E-05       4    7    1        -0.3468135199E-03      0.8436461191E-03

    ------------------------------------------------
       NWT REQUIRED            4 OUTER ITERATIONS 
       AND A TOTAL OF          7 INNER ITERATIONS.
    ------------------------------------------------

 NO OUTPUT CONTROL FOR STRESS PERIOD   49   TIME STEP   18
 
 SOLVING FOR HEAD 
                                                   Max.-Head-Change                         Max.-Flux-Residual
  Residual-Control   Outer-Iter.   Inner-Iter.     Column Row Layer    Maximum-Head-Change  Column Row Layer    Maximum-Flux-Residual          L2-NORM 
          0                 1           2             4    7     1       0.2292634784E-01       4    7    1         0.1202736090E+01      0.2929071654E+01
          0                 2           2             4    7     1      -0.2228909703E-02       4    7    1        -0.1202089308E+00      0.2927989833E+00
          0                 3           2             4    7     1       0.1516660355E-03       4    7    1         0.8408266879E-02      0.2048536307E-01
          0                 4           1             4    7     1      -0.6027364141E-05       4    7    1        -0.3434661794E-03      0.8371327973E-03

    ------------------------------------------------
       NWT REQUIRED            4 OUTER ITERATIONS 
       AND A TOTAL OF          7 INNER ITERATIONS.
    ------------------------------------------------

 NO OUTPUT CONTROL FOR STRESS PERIOD   49   TIME STEP   19
 
 SOLVING FOR HEAD 
                                                   Max.-Head-Change                         Max.-Flux-Residual
  Residual-Control   Outer-Iter.   Inner-Iter.     Column Row Layer    Maximum-Head-Change  Column Row Layer    Maximum-Flux-Residual          L2-NORM 
          0                 1           2             4    7     1       0.2270791845E-01       4    7    1         0.1191204756E+01      0.2906577778E+01
          0                 2           2             4    7     1      -0.2207673732E-02       4    7    1        -0.1190564052E+00      0.2905506104E+00
          0                 3           2             4    7     1       0.1502210322E-03       4    7    1         0.8327650740E-02      0.2032808301E-01
          0                 4           1             4    7     1      -0.5969938148E-05       4    7    1        -0.3401731060E-03      0.8307139755E-03

    ------------------------------------------------
       NWT REQUIRED            4 OUTER ITERATIONS 
       AND A TOTAL OF          7 INNER ITERATIONS.
    ------------------------------------------------

 NO OUTPUT CONTROL FOR STRESS PERIOD   49   TIME STEP   20
 
 SOLVING FOR HEAD 
                                                   Max.-Head-Change                         Max.-Flux-Residual
  Residual-Control   Outer-Iter.   Inner-Iter.     Column Row Layer    Maximum-Head-Change  Column Row Layer    Maximum-Flux-Residual          L2-NORM 
          0                 1           2             4    7     1       0.2249280669E-01       4    7    1         0.1179850353E+01      0.2884394740E+01
          0                 2           2             4    7     1      -0.2186760309E-02       4    7    1        -0.1179215637E+00      0.2883333040E+00
          0                 3           2             4    7     1       0.1487979764E-03       4    7    1         0.8248271575E-02      0.2017296683E-01
          0                 4           1             4    7     1      -0.5913383787E-05       4    7    1        -0.3369305296E-03      0.8243698004E-03

    ------------------------------------------------
       NWT REQUIRED            4 OUTER ITERATIONS 
       AND A TOTAL OF          7 INNER ITERATIONS.
    ------------------------------------------------

 NO OUTPUT CONTROL FOR STRESS PERIOD   49   TIME STEP   21
 
 SOLVING FOR HEAD 
                                                   Max.-Head-Change                         Max.-Flux-Residual
  Residual-Control   Outer-Iter.   Inner-Iter.     Column Row Layer    Maximum-Head-Change  Column Row Layer    Maximum-Flux-Residual          L2-NORM 
          0                 1           2             4    7     1       0.2228105057E-01       4    7    1         0.1168675247E+01      0.2862514402E+01
          0                 2           2             4    7     1      -0.2166173129E-02       4    7    1        -0.1168046427E+00      0.2861462777E+00
          0                 3           2             4    7     1       0.1473971200E-03       4    7    1         0.8170145902E-02      0.2001997583E-01
          0                 4           1             4    7     1      -0.5857711993E-05       4    7    1        -0.3337391677E-03      0.8181194003E-03

    ------------------------------------------------
       NWT REQUIRED            4 OUTER ITERATIONS 
       AND A TOTAL OF          7 INNER ITERATIONS.
    ------------------------------------------------

 NO OUTPUT CONTROL FOR STRESS PERIOD   49   TIME STEP   22
 
 SOLVING FOR HEAD 
                                                   Max.-Head-Change                         Max.-Flux-Residual
  Residual-Control   Outer-Iter.   Inner-Iter.     Column Row Layer    Maximum-Head-Change  Column Row Layer    Maximum-Flux-Residual          L2-NORM 
          0                 1           2             4    7     1       0.2207255638E-01       4    7    1         0.1157674124E+01      0.2840932790E+01
          0                 2           2             4    7     1      -0.2145903076E-02       4    7    1        -0.1157051112E+00      0.2839816339E+00
          0                 3           2             4    7     1       0.1460178429E-03       4    7    1         0.8093236584E-02      0.1986854353E-01
          0                 4           1             4    7     1      -0.5802897901E-05       4    7    1        -0.3305975169E-03      0.8119342354E-03

    ------------------------------------------------
       NWT REQUIRED            4 OUTER ITERATIONS 
       AND A TOTAL OF          7 INNER ITERATIONS.
    ------------------------------------------------

 NO OUTPUT CONTROL FOR STRESS PERIOD   49   TIME STEP   23
 
 SOLVING FOR HEAD 
                                                   Max.-Head-Change                         Max.-Flux-Residual
  Residual-Control   Outer-Iter.   Inner-Iter.     Column Row Layer    Maximum-Head-Change  Column Row Layer    Maximum-Flux-Residual          L2-NORM 
          0                 1           2             4    7     1       0.2186723469E-01       4    7    1         0.1146842128E+01      0.2819646230E+01
          0                 2           2             4    7     1      -0.2126002607E-02       4    7    1        -0.1146224836E+00      0.2819405446E+00
          0                 3           2             4    7     1       0.1446637123E-03       4    7    1         0.8017509530E-02      0.1972575113E-01
          0                 4           1             4    7     1      -0.5749082771E-05       4    7    1        -0.3275041254E-03      0.8061052016E-03

    ------------------------------------------------
       NWT REQUIRED            4 OUTER ITERATIONS 
       AND A TOTAL OF          7 INNER ITERATIONS.
    ------------------------------------------------

 NO OUTPUT CONTROL FOR STRESS PERIOD   49   TIME STEP   24
 
 SOLVING FOR HEAD 
                                                   Max.-Head-Change                         Max.-Flux-Residual
  Residual-Control   Outer-Iter.   Inner-Iter.     Column Row Layer    Maximum-Head-Change  Column Row Layer    Maximum-Flux-Residual          L2-NORM 
          0                 1           2             4    7     1       0.2166466421E-01       4    7    1         0.1136164074E+01      0.2798589599E+01
          0                 2           2             4    7     1      -0.2106247381E-02       4    7    1        -0.1135552432E+00      0.2797567619E+00
          0                 3           2             4    7     1       0.1433194699E-03       4    7    1         0.7942859077E-02      0.1957300694E-01
          0                 4           1             4    7     1      -0.5695661377E-05       4    7    1        -0.3244547659E-03      0.7998598242E-03

    ------------------------------------------------
       NWT REQUIRED            4 OUTER ITERATIONS 
       AND A TOTAL OF          7 INNER ITERATIONS.
    ------------------------------------------------

 NO OUTPUT CONTROL FOR STRESS PERIOD   49   TIME STEP   25
 
 SOLVING FOR HEAD 
                                                   Max.-Head-Change                         Max.-Flux-Residual
  Residual-Control   Outer-Iter.   Inner-Iter.     Column Row Layer    Maximum-Head-Change  Column Row Layer    Maximum-Flux-Residual          L2-NORM 
          0                 1           2             4    7     1       0.2146523257E-01       4    7    1         0.1125649752E+01      0.2777792996E+01
          0                 2           2             4    7     1      -0.2086858423E-02       4    7    1        -0.1125043672E+00      0.2776780739E+00
          0                 3           2             4    7     1       0.1420001475E-03       4    7    1         0.7869353149E-02      0.1942759958E-01
          0                 4           1             4    7     1      -0.5643230080E-05       4    7    1        -0.3214521146E-03      0.7939211868E-03

    ------------------------------------------------
       NWT REQUIRED            4 OUTER ITERATIONS 
       AND A TOTAL OF          7 INNER ITERATIONS.
    ------------------------------------------------

 NO OUTPUT CONTROL FOR STRESS PERIOD   49   TIME STEP   26
 
 SOLVING FOR HEAD 
                                                   Max.-Head-Change                         Max.-Flux-Residual
  Residual-Control   Outer-Iter.   Inner-Iter.     Column Row Layer    Maximum-Head-Change  Column Row Layer    Maximum-Flux-Residual          L2-NORM 
          0                 1           2             4    7     1       0.2126866788E-01       4    7    1         0.1115287631E+01      0.2757279387E+01
          0                 2           2             4    7     1      -0.2067748195E-02       4    7    1        -0.1114687034E+00      0.2756276508E+00
          0                 3           2             4    7     1       0.1406997915E-03       4    7    1         0.7796911244E-02      0.1928954401E-01
          0                 4           1             3   13     1       0.6806238852E-05       3   13    1         0.4254485948E-03      0.8958527119E-03

    ------------------------------------------------
       NWT REQUIRED            4 OUTER ITERATIONS 
       AND A TOTAL OF          7 INNER ITERATIONS.
    ------------------------------------------------

 NO OUTPUT CONTROL FOR STRESS PERIOD   49   TIME STEP   27
 
 SOLVING FOR HEAD 
                                                   Max.-Head-Change                         Max.-Flux-Residual
  Residual-Control   Outer-Iter.   Inner-Iter.     Column Row Layer    Maximum-Head-Change  Column Row Layer    Maximum-Flux-Residual          L2-NORM 
          0                 1           2             4    7     1       0.2107490180E-01       4    7    1         0.1105074155E+01      0.2737041277E+01
          0                 2           2             4    7     1      -0.2048910054E-02       4    7    1        -0.1104478964E+00      0.2736047680E+00
          0                 3           2             4    7     1       0.1394179493E-03       4    7    1         0.7725508540E-02      0.1914263095E-01
          0                 4           1             4    7     1      -0.5540610518E-05       4    7    1        -0.3155762358E-03      0.7824306511E-03

    ------------------------------------------------
       NWT REQUIRED            4 OUTER ITERATIONS 
       AND A TOTAL OF          7 INNER ITERATIONS.
    ------------------------------------------------

 NO OUTPUT CONTROL FOR STRESS PERIOD   49   TIME STEP   28
 
 SOLVING FOR HEAD 
                                                   Max.-Head-Change                         Max.-Flux-Residual
  Residual-Control   Outer-Iter.   Inner-Iter.     Column Row Layer    Maximum-Head-Change  Column Row Layer    Maximum-Flux-Residual          L2-NORM 
          0                 1           2             4    7     1       0.2088387162E-01       4    7    1         0.1095005782E+01      0.2717073579E+01
          0                 2           2             4    7     1      -0.2030337903E-02       4    7    1        -0.1094415923E+00      0.2716089298E+00
          0                 3           2             4    7     1       0.1381542068E-03       4    7    1         0.7655120295E-02      0.1900301617E-01
          0                 4           1             4    7     1      -0.5490387829E-05       4    7    1        -0.3127009504E-03      0.7765768240E-03

    ------------------------------------------------
       NWT REQUIRED            4 OUTER ITERATIONS 
       AND A TOTAL OF          7 INNER ITERATIONS.
    ------------------------------------------------

 NO OUTPUT CONTROL FOR STRESS PERIOD   49   TIME STEP   29
 
 SOLVING FOR HEAD 
                                                   Max.-Head-Change                         Max.-Flux-Residual
  Residual-Control   Outer-Iter.   Inner-Iter.     Column Row Layer    Maximum-Head-Change  Column Row Layer    Maximum-Flux-Residual          L2-NORM 
          0                 1           2             4    7     1       0.2069551362E-01       4    7    1         0.1085079260E+01      0.2697372178E+01
          0                 2           2             4    7     1      -0.2012025546E-02       4    7    1        -0.1084494659E+00      0.2696397096E+00
          0                 3           2             4    7     1       0.1369081419E-03       4    7    1         0.7585723739E-02      0.1886526633E-01
          0                 4           1             4    7     1      -0.5440867879E-05       4    7    1        -0.3098661730E-03      0.7709456003E-03

    ------------------------------------------------
       NWT REQUIRED            4 OUTER ITERATIONS 
       AND A TOTAL OF          7 INNER ITERATIONS.
    ------------------------------------------------

 NO OUTPUT CONTROL FOR STRESS PERIOD   49   TIME STEP   30



 STREAM LISTING     PERIOD     49   STEP       30

 LAYER ROW COL. STREAM  RCH.  FLOW INTO     FLOW TO   FLOW OUT OF   OVRLND.     DIRECT     STREAM       STREAM     STREAM     STREAM   STREAMBED  STREAMBED
                SEG.NO.  NO.  STRM. RCH.    AQUIFER    STRM. RCH.    RUNOFF     PRECIP       ET          HEAD       DEPTH      WIDTH   CONDCTNC.   GRADIENT

   1    1    1     1     1    1.9000E+01  2.1427E-01   1.8786E+01  0.000E+00  0.000E+00  0.000E+00  1.09413E+03  1.082E+00  1.166E+01  5.249E-02  1.361E+00
   1    2    2     1     2    1.8786E+01  3.3054E-01   1.8455E+01  0.000E+00  0.000E+00  0.000E+00  1.08914E+03  1.077E+00  1.158E+01  8.107E-02  1.359E+00
   1    3    3     1     3    1.8455E+01  2.8064E-01   1.8175E+01  0.000E+00  0.000E+00  0.000E+00  1.08349E+03  1.072E+00  1.149E+01  6.892E-02  1.357E+00
   1    3    4     1     4    1.8175E+01  2.5740E-01   1.7917E+01  0.000E+00  0.000E+00  0.000E+00  1.07848E+03  1.068E+00  1.140E+01  6.328E-02  1.356E+00
   1    4    5     2     1    1.5917E+01  3.0542E-01   1.5612E+01  0.000E+00  0.000E+00  0.000E+00  1.07285E+03  9.157E-01  1.200E+01  7.800E-02  1.305E+00
   1    5    6     2     2    1.5612E+01  2.3438E-01   1.5377E+01  0.000E+00  0.000E+00  0.000E+00  1.06742E+03  9.063E-01  1.200E+01  6.000E-02  1.302E+00
   1    6    6     2     3    1.5377E+01  2.3388E-01   1.5143E+01  0.000E+00  0.000E+00  0.000E+00  1.06269E+03  8.980E-01  1.200E+01  6.000E-02  1.299E+00
   1    7    6     2     4    1.5143E+01  2.3338E-01   1.4910E+01  0.000E+00  0.000E+00  0.000E+00  1.05797E+03  8.897E-01  1.200E+01  6.000E-02  1.297E+00
   1    8    6     2     5    1.4910E+01  2.3289E-01   1.4677E+01  0.000E+00  0.000E+00  0.000E+00  1.05324E+03  8.814E-01  1.200E+01  6.000E-02  1.294E+00
   1    3    5     3     1    2.0000E+00  2.8252E-01   1.7175E+00  0.000E+00  0.000E+00  0.000E+00  1.07555E+03  1.909E+00  9.636E+00  7.227E-02  1.955E+00
   1    3    6     3     2    1.7175E+00  2.4905E-01   1.4684E+00  0.000E+00  0.000E+00  0.000E+00  1.07264E+03  1.727E+00  8.909E+00  6.682E-02  1.864E+00
   1    3    7     3     3    1.4684E+00  1.9718E-01   1.2712E+00  0.000E+00  0.000E+00  0.000E+00  1.06987E+03  1.555E+00  8.218E+00  5.547E-02  1.777E+00
   1    4    8     3     4    1.2712E+00  2.2567E-01   1.0456E+00  0.000E+00  0.000E+00  0.000E+00  1.06682E+03  1.364E+00  7.455E+00  6.709E-02  1.682E+00
   1    5    8     3     5    1.0456E+00  1.5790E-01   8.8768E-01  0.000E+00  0.000E+00  0.000E+00  1.06362E+03  1.164E+00  6.655E+00  4.991E-02  1.582E+00
   1    6    8     3     6    8.8768E-01  5.5980E-02   8.3170E-01  0.000E+00  0.000E+00  0.000E+00  1.06158E+03  1.036E+00  6.145E+00  1.844E-02  1.518E+00
   1    5   10     4     1    1.0000E+01  9.0919E-02   9.9091E+00  0.000E+00  0.000E+00  0.000E+00  1.07836E+03  6.368E-01  1.000E+01  2.500E-02  1.212E+00
   1    5    9     4     2    9.9091E+00  1.8158E-01   9.7275E+00  0.000E+00  0.000E+00  0.000E+00  1.07154E+03  6.315E-01  1.000E+01  5.000E-02  1.211E+00
   1    6    8     4     3    9.7275E+00  1.2689E-01   9.6006E+00  0.000E+00  0.000E+00  0.000E+00  1.06381E+03  6.256E-01  1.000E+01  3.500E-02  1.209E+00
   1    6    8     5     1    1.0432E+01  2.2686E-01   1.0205E+01  0.000E+00  0.000E+00  0.000E+00  1.05868E+03  6.790E-01  1.542E+01  6.166E-02  1.226E+00
   1    7    7     5     2    1.0205E+01  2.7894E-01   9.9265E+00  0.000E+00  0.000E+00  0.000E+00  1.05417E+03  6.732E-01  1.519E+01  7.594E-02  1.224E+00
   1    8    7     5     3    9.9265E+00  1.9221E-01   9.7343E+00  0.000E+00  0.000E+00  0.000E+00  1.04992E+03  6.676E-01  1.497E+01  5.241E-02  1.223E+00
   1    8    6     5     4    9.7343E+00  1.3577E-01   9.5985E+00  0.000E+00  0.000E+00  0.000E+00  1.04691E+03  6.637E-01  1.482E+01  3.706E-02  1.221E+00
   1    9    6     6     1    2.4276E+01  2.5176E-01   2.4024E+01  0.000E+00  0.000E+00  0.000E+00  1.04392E+03  1.196E+00  1.200E+01  6.000E-02  1.399E+00
   1   10    7     6     2    2.4024E+01  2.5131E-01   2.3773E+01  0.000E+00  0.000E+00  0.000E+00  1.03937E+03  1.188E+00  1.200E+01  6.000E-02  1.396E+00
   1   11    7     6     3    2.3773E+01  2.5086E-01   2.3522E+01  0.000E+00  0.000E+00  0.000E+00  1.03482E+03  1.181E+00  1.200E+01  6.000E-02  1.394E+00
   1   12    7     6     4    2.3522E+01  2.5041E-01   2.3271E+01  0.000E+00  0.000E+00  0.000E+00  1.03026E+03  1.173E+00  1.200E+01  6.000E-02  1.391E+00
   1   13    7     6     5    2.3271E+01  1.2783E-02   2.3259E+01  0.000E+00  0.000E+00  0.000E+00  1.02708E+03  1.169E+00  1.200E+01  2.400E-02  1.775E-01
   1   14    9     7     1    1.5000E+02  1.3830E+00   1.4862E+02  0.000E+00  0.000E+00  0.000E+00  1.03987E+03  2.288E+00  5.529E+01  5.593E-01  8.243E-01
   1   13    8     7     2    1.4862E+02  1.9989E+00   1.4662E+02  0.000E+00  0.000E+00  0.000E+00  1.03478E+03  2.279E+00  5.525E+01  6.147E-01  1.084E+00
   1   13    7     7     3    1.4662E+02  1.7544E+00   1.4486E+02  0.000E+00  0.000E+00  0.000E+00  1.02969E+03  2.269E+00  5.521E+01  5.584E-01  1.047E+00
   1   13    6     8     1    1.6812E+02  1.1876E+00   1.6693E+02  0.000E+00  0.000E+00  0.000E+00  1.02481E+03  2.936E+00  4.257E+01  4.338E-01  9.125E-01
   1   13    5     8     2    1.6693E+02  4.2401E-01   1.6651E+02  0.000E+00  0.000E+00  0.000E+00  1.01856E+03  2.931E+00  4.250E+01  4.330E-01  3.264E-01
   1   13    4     8     3    1.6651E+02 -1.5945E+00   1.6811E+02  0.000E+00  0.000E+00  0.000E+00  1.01231E+03  2.935E+00  4.255E+01  4.336E+00 -1.226E-01
   1   13    3     8     4    1.6811E+02 -3.2440E+00   1.7135E+02  0.000E+00  0.000E+00  0.000E+00  1.00608E+03  2.950E+00  4.278E+01  4.360E+00 -2.480E-01
   1   13    2     8     5    1.7135E+02 -2.4767E+00   1.7383E+02  0.000E+00  0.000E+00  0.000E+00  9.99844E+02  2.969E+00  4.305E+01  4.387E+00 -1.882E-01
   1   13    1     8     6    1.7383E+02 -1.9558E+00   1.7578E+02  0.000E+00  0.000E+00  0.000E+00  9.94858E+02  2.983E+00  4.326E+01  2.645E+00 -2.465E-01





UNSATURATED ZONE PACKAGE VOLUMETRIC BUDGET FOR  TIME STEP    30 STRESS PERIOD   49
  ------------------------------------------------------------------------------



     CUMULATIVE VOLUMES      L**3       RATES FOR THIS TIME STEP      L**3/T
     ------------------                 ------------------------

           IN:                                      IN:
           ---                                      ---
        INFILTRATION =  1847230462.7373          INFILTRATION =           0.8475

          OUT:                                     OUT:
          ----                                     ----
              UZF ET =  1694936993.4541                UZF ET =           0.7500
        UZF RECHARGE =   151703455.3615          UZF RECHARGE =           0.0003

            IN - OUT =      590013.9217              IN - OUT =       9.7236E-02

          STORAGE:                                 STORAGE:
          --------                                 --------
      STORAGE CHANGE =      590021.8142        STORAGE CHANGE =       9.7236E-02

 PERCENT DISCREPANCY IS DIFFERENCE BETWEEN IN-OUT MINUS CHANGE IN STORAGE
 DIVIDED BY THE AVERAGE OF IN AND OUT TIMES 100

 PERCENT DISCREPANCY =           0.00     PERCENT DISCREPANCY =           0.00






1
  VOLUMETRIC BUDGET FOR AGRICULTURAL FIELDS AT  END OF TIME STEP   30, STRESS PERIOD  49
  ------------------------------------------------------------------------------

     CUMULATIVE VOLUMES      L**3       RATES FOR THIS TIME STEP      L**3/T
     ------------------                 ------------------------

           IN:                                      IN:
           ---                                      ---
               AG WELLS  =  1740171648.0000                 AG WELLS  =           0.0000
      DIVERSION SEGMENTS =           0.0000        DIVERSION SEGMENTS =           0.0000
           GW IRRIGATION =           0.0000             GW IRRIGATION =           0.0000
           SW IRRIGATION =           0.0000             SW IRRIGATION =           0.0000
        SYSTEM LOSSES GW =           0.0000          SYSTEM LOSSES GW =           0.0000
        SYSTEM LOSSES SW =           0.0000          SYSTEM LOSSES SW =           0.0000

                TOTAL IN =  1740171648.0000                  TOTAL IN =           0.0000

          OUT:                                     OUT:
          ----                                     ----
               AG WELLS  =           0.0000                 AG WELLS  =           0.0000
      DIVERSION SEGMENTS =           0.0000        DIVERSION SEGMENTS =           0.0000
           GW IRRIGATION =  1740171648.0000             GW IRRIGATION =           0.0000
           SW IRRIGATION =           0.0000             SW IRRIGATION =           0.0000
        SYSTEM LOSSES GW =           0.0000          SYSTEM LOSSES GW =           0.0000
        SYSTEM LOSSES SW =           0.0000          SYSTEM LOSSES SW =           0.0000

               TOTAL OUT =  1740171648.0000                 TOTAL OUT =           0.0000

                IN - OUT =           0.0000                  IN - OUT =           0.0000

     PERCENT DISCREPANCY =           0.00         PERCENT DISCREPANCY =           0.00



1
  VOLUMETRIC BUDGET FOR ENTIRE MODEL AT END OF TIME STEP   30, STRESS PERIOD  49
  ------------------------------------------------------------------------------

     CUMULATIVE VOLUMES      L**3       RATES FOR THIS TIME STEP      L**3/T
     ------------------                 ------------------------

           IN:                                      IN:
           ---                                      ---
             STORAGE     =  2296888320.0000               STORAGE     =           6.6091
       CONSTANT HEAD     =           0.0000         CONSTANT HEAD     =           0.0000
     HEAD DEP BOUNDS     =    36183696.0000       HEAD DEP BOUNDS     =           0.2890
      STREAM LEAKAGE     =  1549614464.0000        STREAM LEAKAGE     =          12.4893
        UZF RECHARGE     =   151703632.0000          UZF RECHARGE     =       2.6378E-04
               GW ET     =           0.0000                 GW ET     =           0.0000
     SURFACE LEAKAGE     =           0.0000       SURFACE LEAKAGE     =           0.0000
           AG WELLS      =           0.0000             AG WELLS      =           0.0000

                TOTAL IN =  4034390016.0000                  TOTAL IN =          19.3876

          OUT:                                     OUT:
          ----                                     ----
             STORAGE     =   968467072.0000               STORAGE     =           9.8278
       CONSTANT HEAD     =           0.0000         CONSTANT HEAD     =           0.0000
     HEAD DEP BOUNDS     =    36829296.0000       HEAD DEP BOUNDS     =           0.2887
      STREAM LEAKAGE     =  1271303552.0000        STREAM LEAKAGE     =           9.2711
        UZF RECHARGE     =           0.0000          UZF RECHARGE     =           0.0000
               GW ET     =    17607600.0000                 GW ET     =           0.0000
     SURFACE LEAKAGE     =           0.0000       SURFACE LEAKAGE     =           0.0000
           AG WELLS      =  1740171648.0000             AG WELLS      =           0.0000

               TOTAL OUT =  4034379264.0000                 TOTAL OUT =          19.3876

                IN - OUT =       10752.0000                  IN - OUT =       1.3351E-05

     PERCENT DISCREPANCY =           0.00         PERCENT DISCREPANCY =           0.00






         TIME SUMMARY AT END OF TIME STEP   30 IN STRESS PERIOD   49
                    SECONDS     MINUTES      HOURS       DAYS        YEARS
                    -----------------------------------------------------------
   TIME STEP LENGTH  87667.      1461.1      24.352      1.0147     2.77799E-03
 STRESS PERIOD TIME 2.63000E+06  43833.      730.56      30.440     8.33397E-02
         TOTAL TIME 1.26325E+08 2.10542E+06  35090.      1462.1      4.0030    
1

 Run end date and time (yyyy/mm/dd hh:mm:ss): 2022/07/05 14:40:36
 Elapsed run time:  3.351 Seconds

